$ Spice netlist generated by v2lvs
$ v2022.2_38.20    Thu Jun 2 16:13:39 PDT 2022
*.BUSDELIMITER [ 

.SUBCKT axi_interconnect AXI_CLK AXI_RSTn M0_AXI_ARREADY M0_AXI_ARVALID 
+ M0_AXI_AWREADY M0_AXI_AWVALID M0_AXI_BREADY M0_AXI_BVALID M0_AXI_RLAST 
+ M0_AXI_RREADY M0_AXI_RVALID M0_AXI_WLAST M0_AXI_WREADY M0_AXI_WVALID 
+ M1_AXI_ARREADY M1_AXI_ARVALID M1_AXI_AWREADY M1_AXI_AWVALID M1_AXI_BREADY 
+ M1_AXI_BVALID M1_AXI_RLAST M1_AXI_RREADY M1_AXI_RVALID M1_AXI_WLAST 
+ M1_AXI_WREADY M1_AXI_WVALID M2_AXI_ARREADY M2_AXI_ARVALID M2_AXI_AWREADY 
+ M2_AXI_AWVALID M2_AXI_BREADY M2_AXI_BVALID M2_AXI_RLAST M2_AXI_RREADY 
+ M2_AXI_RVALID M2_AXI_WLAST M2_AXI_WREADY M2_AXI_WVALID S0_AXI_ARREADY 
+ S0_AXI_ARVALID S0_AXI_AWREADY S0_AXI_AWVALID S0_AXI_BREADY S0_AXI_BVALID 
+ S0_AXI_RLAST S0_AXI_RREADY S0_AXI_RVALID S0_AXI_WLAST S0_AXI_WREADY 
+ S0_AXI_WVALID S1_AXI_ARREADY S1_AXI_ARVALID S1_AXI_AWREADY S1_AXI_AWVALID 
+ S1_AXI_BREADY S1_AXI_BVALID S1_AXI_RLAST S1_AXI_RREADY S1_AXI_RVALID 
+ S1_AXI_WLAST S1_AXI_WREADY S1_AXI_WVALID S2_AXI_ARREADY S2_AXI_ARVALID 
+ S2_AXI_AWREADY S2_AXI_AWVALID S2_AXI_BREADY S2_AXI_BVALID S2_AXI_RLAST 
+ S2_AXI_RREADY S2_AXI_RVALID S2_AXI_WLAST S2_AXI_WREADY S2_AXI_WVALID penable 
+ psel pwrite M0_AXI_ARADDR[31] M0_AXI_ARADDR[30] M0_AXI_ARADDR[29] 
+ M0_AXI_ARADDR[28] M0_AXI_ARADDR[27] M0_AXI_ARADDR[26] M0_AXI_ARADDR[25] 
+ M0_AXI_ARADDR[24] M0_AXI_ARADDR[23] M0_AXI_ARADDR[22] M0_AXI_ARADDR[21] 
+ M0_AXI_ARADDR[20] M0_AXI_ARADDR[19] M0_AXI_ARADDR[18] M0_AXI_ARADDR[17] 
+ M0_AXI_ARADDR[16] M0_AXI_ARADDR[15] M0_AXI_ARADDR[14] M0_AXI_ARADDR[13] 
+ M0_AXI_ARADDR[12] M0_AXI_ARADDR[11] M0_AXI_ARADDR[10] M0_AXI_ARADDR[9] 
+ M0_AXI_ARADDR[8] M0_AXI_ARADDR[7] M0_AXI_ARADDR[6] M0_AXI_ARADDR[5] 
+ M0_AXI_ARADDR[4] M0_AXI_ARADDR[3] M0_AXI_ARADDR[2] M0_AXI_ARADDR[1] 
+ M0_AXI_ARADDR[0] M0_AXI_ARBURST[1] M0_AXI_ARBURST[0] M0_AXI_ARID[3] 
+ M0_AXI_ARID[2] M0_AXI_ARID[1] M0_AXI_ARID[0] M0_AXI_ARLEN[7] M0_AXI_ARLEN[6] 
+ M0_AXI_ARLEN[5] M0_AXI_ARLEN[4] M0_AXI_ARLEN[3] M0_AXI_ARLEN[2] 
+ M0_AXI_ARLEN[1] M0_AXI_ARLEN[0] M0_AXI_ARSIZE[2] M0_AXI_ARSIZE[1] 
+ M0_AXI_ARSIZE[0] M0_AXI_AWADDR[31] M0_AXI_AWADDR[30] M0_AXI_AWADDR[29] 
+ M0_AXI_AWADDR[28] M0_AXI_AWADDR[27] M0_AXI_AWADDR[26] M0_AXI_AWADDR[25] 
+ M0_AXI_AWADDR[24] M0_AXI_AWADDR[23] M0_AXI_AWADDR[22] M0_AXI_AWADDR[21] 
+ M0_AXI_AWADDR[20] M0_AXI_AWADDR[19] M0_AXI_AWADDR[18] M0_AXI_AWADDR[17] 
+ M0_AXI_AWADDR[16] M0_AXI_AWADDR[15] M0_AXI_AWADDR[14] M0_AXI_AWADDR[13] 
+ M0_AXI_AWADDR[12] M0_AXI_AWADDR[11] M0_AXI_AWADDR[10] M0_AXI_AWADDR[9] 
+ M0_AXI_AWADDR[8] M0_AXI_AWADDR[7] M0_AXI_AWADDR[6] M0_AXI_AWADDR[5] 
+ M0_AXI_AWADDR[4] M0_AXI_AWADDR[3] M0_AXI_AWADDR[2] M0_AXI_AWADDR[1] 
+ M0_AXI_AWADDR[0] M0_AXI_AWBURST[1] M0_AXI_AWBURST[0] M0_AXI_AWID[3] 
+ M0_AXI_AWID[2] M0_AXI_AWID[1] M0_AXI_AWID[0] M0_AXI_AWLEN[7] M0_AXI_AWLEN[6] 
+ M0_AXI_AWLEN[5] M0_AXI_AWLEN[4] M0_AXI_AWLEN[3] M0_AXI_AWLEN[2] 
+ M0_AXI_AWLEN[1] M0_AXI_AWLEN[0] M0_AXI_AWSIZE[2] M0_AXI_AWSIZE[1] 
+ M0_AXI_AWSIZE[0] M0_AXI_BID[3] M0_AXI_BID[2] M0_AXI_BID[1] M0_AXI_BID[0] 
+ M0_AXI_BRESP[1] M0_AXI_BRESP[0] M0_AXI_RDATA[31] M0_AXI_RDATA[30] 
+ M0_AXI_RDATA[29] M0_AXI_RDATA[28] M0_AXI_RDATA[27] M0_AXI_RDATA[26] 
+ M0_AXI_RDATA[25] M0_AXI_RDATA[24] M0_AXI_RDATA[23] M0_AXI_RDATA[22] 
+ M0_AXI_RDATA[21] M0_AXI_RDATA[20] M0_AXI_RDATA[19] M0_AXI_RDATA[18] 
+ M0_AXI_RDATA[17] M0_AXI_RDATA[16] M0_AXI_RDATA[15] M0_AXI_RDATA[14] 
+ M0_AXI_RDATA[13] M0_AXI_RDATA[12] M0_AXI_RDATA[11] M0_AXI_RDATA[10] 
+ M0_AXI_RDATA[9] M0_AXI_RDATA[8] M0_AXI_RDATA[7] M0_AXI_RDATA[6] 
+ M0_AXI_RDATA[5] M0_AXI_RDATA[4] M0_AXI_RDATA[3] M0_AXI_RDATA[2] 
+ M0_AXI_RDATA[1] M0_AXI_RDATA[0] M0_AXI_RID[3] M0_AXI_RID[2] M0_AXI_RID[1] 
+ M0_AXI_RID[0] M0_AXI_RRESP[1] M0_AXI_RRESP[0] M0_AXI_WDATA[31] 
+ M0_AXI_WDATA[30] M0_AXI_WDATA[29] M0_AXI_WDATA[28] M0_AXI_WDATA[27] 
+ M0_AXI_WDATA[26] M0_AXI_WDATA[25] M0_AXI_WDATA[24] M0_AXI_WDATA[23] 
+ M0_AXI_WDATA[22] M0_AXI_WDATA[21] M0_AXI_WDATA[20] M0_AXI_WDATA[19] 
+ M0_AXI_WDATA[18] M0_AXI_WDATA[17] M0_AXI_WDATA[16] M0_AXI_WDATA[15] 
+ M0_AXI_WDATA[14] M0_AXI_WDATA[13] M0_AXI_WDATA[12] M0_AXI_WDATA[11] 
+ M0_AXI_WDATA[10] M0_AXI_WDATA[9] M0_AXI_WDATA[8] M0_AXI_WDATA[7] 
+ M0_AXI_WDATA[6] M0_AXI_WDATA[5] M0_AXI_WDATA[4] M0_AXI_WDATA[3] 
+ M0_AXI_WDATA[2] M0_AXI_WDATA[1] M0_AXI_WDATA[0] M0_AXI_WID[3] M0_AXI_WID[2] 
+ M0_AXI_WID[1] M0_AXI_WID[0] M0_AXI_WSTRB[3] M0_AXI_WSTRB[2] M0_AXI_WSTRB[1] 
+ M0_AXI_WSTRB[0] M1_AXI_ARADDR[31] M1_AXI_ARADDR[30] M1_AXI_ARADDR[29] 
+ M1_AXI_ARADDR[28] M1_AXI_ARADDR[27] M1_AXI_ARADDR[26] M1_AXI_ARADDR[25] 
+ M1_AXI_ARADDR[24] M1_AXI_ARADDR[23] M1_AXI_ARADDR[22] M1_AXI_ARADDR[21] 
+ M1_AXI_ARADDR[20] M1_AXI_ARADDR[19] M1_AXI_ARADDR[18] M1_AXI_ARADDR[17] 
+ M1_AXI_ARADDR[16] M1_AXI_ARADDR[15] M1_AXI_ARADDR[14] M1_AXI_ARADDR[13] 
+ M1_AXI_ARADDR[12] M1_AXI_ARADDR[11] M1_AXI_ARADDR[10] M1_AXI_ARADDR[9] 
+ M1_AXI_ARADDR[8] M1_AXI_ARADDR[7] M1_AXI_ARADDR[6] M1_AXI_ARADDR[5] 
+ M1_AXI_ARADDR[4] M1_AXI_ARADDR[3] M1_AXI_ARADDR[2] M1_AXI_ARADDR[1] 
+ M1_AXI_ARADDR[0] M1_AXI_ARBURST[1] M1_AXI_ARBURST[0] M1_AXI_ARID[3] 
+ M1_AXI_ARID[2] M1_AXI_ARID[1] M1_AXI_ARID[0] M1_AXI_ARLEN[7] M1_AXI_ARLEN[6] 
+ M1_AXI_ARLEN[5] M1_AXI_ARLEN[4] M1_AXI_ARLEN[3] M1_AXI_ARLEN[2] 
+ M1_AXI_ARLEN[1] M1_AXI_ARLEN[0] M1_AXI_ARSIZE[2] M1_AXI_ARSIZE[1] 
+ M1_AXI_ARSIZE[0] M1_AXI_AWADDR[31] M1_AXI_AWADDR[30] M1_AXI_AWADDR[29] 
+ M1_AXI_AWADDR[28] M1_AXI_AWADDR[27] M1_AXI_AWADDR[26] M1_AXI_AWADDR[25] 
+ M1_AXI_AWADDR[24] M1_AXI_AWADDR[23] M1_AXI_AWADDR[22] M1_AXI_AWADDR[21] 
+ M1_AXI_AWADDR[20] M1_AXI_AWADDR[19] M1_AXI_AWADDR[18] M1_AXI_AWADDR[17] 
+ M1_AXI_AWADDR[16] M1_AXI_AWADDR[15] M1_AXI_AWADDR[14] M1_AXI_AWADDR[13] 
+ M1_AXI_AWADDR[12] M1_AXI_AWADDR[11] M1_AXI_AWADDR[10] M1_AXI_AWADDR[9] 
+ M1_AXI_AWADDR[8] M1_AXI_AWADDR[7] M1_AXI_AWADDR[6] M1_AXI_AWADDR[5] 
+ M1_AXI_AWADDR[4] M1_AXI_AWADDR[3] M1_AXI_AWADDR[2] M1_AXI_AWADDR[1] 
+ M1_AXI_AWADDR[0] M1_AXI_AWBURST[1] M1_AXI_AWBURST[0] M1_AXI_AWID[3] 
+ M1_AXI_AWID[2] M1_AXI_AWID[1] M1_AXI_AWID[0] M1_AXI_AWLEN[7] M1_AXI_AWLEN[6] 
+ M1_AXI_AWLEN[5] M1_AXI_AWLEN[4] M1_AXI_AWLEN[3] M1_AXI_AWLEN[2] 
+ M1_AXI_AWLEN[1] M1_AXI_AWLEN[0] M1_AXI_AWSIZE[2] M1_AXI_AWSIZE[1] 
+ M1_AXI_AWSIZE[0] M1_AXI_BID[3] M1_AXI_BID[2] M1_AXI_BID[1] M1_AXI_BID[0] 
+ M1_AXI_BRESP[1] M1_AXI_BRESP[0] M1_AXI_RDATA[31] M1_AXI_RDATA[30] 
+ M1_AXI_RDATA[29] M1_AXI_RDATA[28] M1_AXI_RDATA[27] M1_AXI_RDATA[26] 
+ M1_AXI_RDATA[25] M1_AXI_RDATA[24] M1_AXI_RDATA[23] M1_AXI_RDATA[22] 
+ M1_AXI_RDATA[21] M1_AXI_RDATA[20] M1_AXI_RDATA[19] M1_AXI_RDATA[18] 
+ M1_AXI_RDATA[17] M1_AXI_RDATA[16] M1_AXI_RDATA[15] M1_AXI_RDATA[14] 
+ M1_AXI_RDATA[13] M1_AXI_RDATA[12] M1_AXI_RDATA[11] M1_AXI_RDATA[10] 
+ M1_AXI_RDATA[9] M1_AXI_RDATA[8] M1_AXI_RDATA[7] M1_AXI_RDATA[6] 
+ M1_AXI_RDATA[5] M1_AXI_RDATA[4] M1_AXI_RDATA[3] M1_AXI_RDATA[2] 
+ M1_AXI_RDATA[1] M1_AXI_RDATA[0] M1_AXI_RID[3] M1_AXI_RID[2] M1_AXI_RID[1] 
+ M1_AXI_RID[0] M1_AXI_RRESP[1] M1_AXI_RRESP[0] M1_AXI_WDATA[31] 
+ M1_AXI_WDATA[30] M1_AXI_WDATA[29] M1_AXI_WDATA[28] M1_AXI_WDATA[27] 
+ M1_AXI_WDATA[26] M1_AXI_WDATA[25] M1_AXI_WDATA[24] M1_AXI_WDATA[23] 
+ M1_AXI_WDATA[22] M1_AXI_WDATA[21] M1_AXI_WDATA[20] M1_AXI_WDATA[19] 
+ M1_AXI_WDATA[18] M1_AXI_WDATA[17] M1_AXI_WDATA[16] M1_AXI_WDATA[15] 
+ M1_AXI_WDATA[14] M1_AXI_WDATA[13] M1_AXI_WDATA[12] M1_AXI_WDATA[11] 
+ M1_AXI_WDATA[10] M1_AXI_WDATA[9] M1_AXI_WDATA[8] M1_AXI_WDATA[7] 
+ M1_AXI_WDATA[6] M1_AXI_WDATA[5] M1_AXI_WDATA[4] M1_AXI_WDATA[3] 
+ M1_AXI_WDATA[2] M1_AXI_WDATA[1] M1_AXI_WDATA[0] M1_AXI_WID[3] M1_AXI_WID[2] 
+ M1_AXI_WID[1] M1_AXI_WID[0] M1_AXI_WSTRB[3] M1_AXI_WSTRB[2] M1_AXI_WSTRB[1] 
+ M1_AXI_WSTRB[0] M2_AXI_ARADDR[31] M2_AXI_ARADDR[30] M2_AXI_ARADDR[29] 
+ M2_AXI_ARADDR[28] M2_AXI_ARADDR[27] M2_AXI_ARADDR[26] M2_AXI_ARADDR[25] 
+ M2_AXI_ARADDR[24] M2_AXI_ARADDR[23] M2_AXI_ARADDR[22] M2_AXI_ARADDR[21] 
+ M2_AXI_ARADDR[20] M2_AXI_ARADDR[19] M2_AXI_ARADDR[18] M2_AXI_ARADDR[17] 
+ M2_AXI_ARADDR[16] M2_AXI_ARADDR[15] M2_AXI_ARADDR[14] M2_AXI_ARADDR[13] 
+ M2_AXI_ARADDR[12] M2_AXI_ARADDR[11] M2_AXI_ARADDR[10] M2_AXI_ARADDR[9] 
+ M2_AXI_ARADDR[8] M2_AXI_ARADDR[7] M2_AXI_ARADDR[6] M2_AXI_ARADDR[5] 
+ M2_AXI_ARADDR[4] M2_AXI_ARADDR[3] M2_AXI_ARADDR[2] M2_AXI_ARADDR[1] 
+ M2_AXI_ARADDR[0] M2_AXI_ARBURST[1] M2_AXI_ARBURST[0] M2_AXI_ARID[3] 
+ M2_AXI_ARID[2] M2_AXI_ARID[1] M2_AXI_ARID[0] M2_AXI_ARLEN[7] M2_AXI_ARLEN[6] 
+ M2_AXI_ARLEN[5] M2_AXI_ARLEN[4] M2_AXI_ARLEN[3] M2_AXI_ARLEN[2] 
+ M2_AXI_ARLEN[1] M2_AXI_ARLEN[0] M2_AXI_ARSIZE[2] M2_AXI_ARSIZE[1] 
+ M2_AXI_ARSIZE[0] M2_AXI_AWADDR[31] M2_AXI_AWADDR[30] M2_AXI_AWADDR[29] 
+ M2_AXI_AWADDR[28] M2_AXI_AWADDR[27] M2_AXI_AWADDR[26] M2_AXI_AWADDR[25] 
+ M2_AXI_AWADDR[24] M2_AXI_AWADDR[23] M2_AXI_AWADDR[22] M2_AXI_AWADDR[21] 
+ M2_AXI_AWADDR[20] M2_AXI_AWADDR[19] M2_AXI_AWADDR[18] M2_AXI_AWADDR[17] 
+ M2_AXI_AWADDR[16] M2_AXI_AWADDR[15] M2_AXI_AWADDR[14] M2_AXI_AWADDR[13] 
+ M2_AXI_AWADDR[12] M2_AXI_AWADDR[11] M2_AXI_AWADDR[10] M2_AXI_AWADDR[9] 
+ M2_AXI_AWADDR[8] M2_AXI_AWADDR[7] M2_AXI_AWADDR[6] M2_AXI_AWADDR[5] 
+ M2_AXI_AWADDR[4] M2_AXI_AWADDR[3] M2_AXI_AWADDR[2] M2_AXI_AWADDR[1] 
+ M2_AXI_AWADDR[0] M2_AXI_AWBURST[1] M2_AXI_AWBURST[0] M2_AXI_AWID[3] 
+ M2_AXI_AWID[2] M2_AXI_AWID[1] M2_AXI_AWID[0] M2_AXI_AWLEN[7] M2_AXI_AWLEN[6] 
+ M2_AXI_AWLEN[5] M2_AXI_AWLEN[4] M2_AXI_AWLEN[3] M2_AXI_AWLEN[2] 
+ M2_AXI_AWLEN[1] M2_AXI_AWLEN[0] M2_AXI_AWSIZE[2] M2_AXI_AWSIZE[1] 
+ M2_AXI_AWSIZE[0] M2_AXI_BID[3] M2_AXI_BID[2] M2_AXI_BID[1] M2_AXI_BID[0] 
+ M2_AXI_BRESP[1] M2_AXI_BRESP[0] M2_AXI_RDATA[31] M2_AXI_RDATA[30] 
+ M2_AXI_RDATA[29] M2_AXI_RDATA[28] M2_AXI_RDATA[27] M2_AXI_RDATA[26] 
+ M2_AXI_RDATA[25] M2_AXI_RDATA[24] M2_AXI_RDATA[23] M2_AXI_RDATA[22] 
+ M2_AXI_RDATA[21] M2_AXI_RDATA[20] M2_AXI_RDATA[19] M2_AXI_RDATA[18] 
+ M2_AXI_RDATA[17] M2_AXI_RDATA[16] M2_AXI_RDATA[15] M2_AXI_RDATA[14] 
+ M2_AXI_RDATA[13] M2_AXI_RDATA[12] M2_AXI_RDATA[11] M2_AXI_RDATA[10] 
+ M2_AXI_RDATA[9] M2_AXI_RDATA[8] M2_AXI_RDATA[7] M2_AXI_RDATA[6] 
+ M2_AXI_RDATA[5] M2_AXI_RDATA[4] M2_AXI_RDATA[3] M2_AXI_RDATA[2] 
+ M2_AXI_RDATA[1] M2_AXI_RDATA[0] M2_AXI_RID[3] M2_AXI_RID[2] M2_AXI_RID[1] 
+ M2_AXI_RID[0] M2_AXI_RRESP[1] M2_AXI_RRESP[0] M2_AXI_WDATA[31] 
+ M2_AXI_WDATA[30] M2_AXI_WDATA[29] M2_AXI_WDATA[28] M2_AXI_WDATA[27] 
+ M2_AXI_WDATA[26] M2_AXI_WDATA[25] M2_AXI_WDATA[24] M2_AXI_WDATA[23] 
+ M2_AXI_WDATA[22] M2_AXI_WDATA[21] M2_AXI_WDATA[20] M2_AXI_WDATA[19] 
+ M2_AXI_WDATA[18] M2_AXI_WDATA[17] M2_AXI_WDATA[16] M2_AXI_WDATA[15] 
+ M2_AXI_WDATA[14] M2_AXI_WDATA[13] M2_AXI_WDATA[12] M2_AXI_WDATA[11] 
+ M2_AXI_WDATA[10] M2_AXI_WDATA[9] M2_AXI_WDATA[8] M2_AXI_WDATA[7] 
+ M2_AXI_WDATA[6] M2_AXI_WDATA[5] M2_AXI_WDATA[4] M2_AXI_WDATA[3] 
+ M2_AXI_WDATA[2] M2_AXI_WDATA[1] M2_AXI_WDATA[0] M2_AXI_WID[3] M2_AXI_WID[2] 
+ M2_AXI_WID[1] M2_AXI_WID[0] M2_AXI_WSTRB[3] M2_AXI_WSTRB[2] M2_AXI_WSTRB[1] 
+ M2_AXI_WSTRB[0] S0_AXI_ARADDR[31] S0_AXI_ARADDR[30] S0_AXI_ARADDR[29] 
+ S0_AXI_ARADDR[28] S0_AXI_ARADDR[27] S0_AXI_ARADDR[26] S0_AXI_ARADDR[25] 
+ S0_AXI_ARADDR[24] S0_AXI_ARADDR[23] S0_AXI_ARADDR[22] S0_AXI_ARADDR[21] 
+ S0_AXI_ARADDR[20] S0_AXI_ARADDR[19] S0_AXI_ARADDR[18] S0_AXI_ARADDR[17] 
+ S0_AXI_ARADDR[16] S0_AXI_ARADDR[15] S0_AXI_ARADDR[14] S0_AXI_ARADDR[13] 
+ S0_AXI_ARADDR[12] S0_AXI_ARADDR[11] S0_AXI_ARADDR[10] S0_AXI_ARADDR[9] 
+ S0_AXI_ARADDR[8] S0_AXI_ARADDR[7] S0_AXI_ARADDR[6] S0_AXI_ARADDR[5] 
+ S0_AXI_ARADDR[4] S0_AXI_ARADDR[3] S0_AXI_ARADDR[2] S0_AXI_ARADDR[1] 
+ S0_AXI_ARADDR[0] S0_AXI_ARBURST[1] S0_AXI_ARBURST[0] S0_AXI_ARID[7] 
+ S0_AXI_ARID[6] S0_AXI_ARID[5] S0_AXI_ARID[4] S0_AXI_ARID[3] S0_AXI_ARID[2] 
+ S0_AXI_ARID[1] S0_AXI_ARID[0] S0_AXI_ARLEN[7] S0_AXI_ARLEN[6] S0_AXI_ARLEN[5] 
+ S0_AXI_ARLEN[4] S0_AXI_ARLEN[3] S0_AXI_ARLEN[2] S0_AXI_ARLEN[1] 
+ S0_AXI_ARLEN[0] S0_AXI_ARSIZE[2] S0_AXI_ARSIZE[1] S0_AXI_ARSIZE[0] 
+ S0_AXI_AWADDR[31] S0_AXI_AWADDR[30] S0_AXI_AWADDR[29] S0_AXI_AWADDR[28] 
+ S0_AXI_AWADDR[27] S0_AXI_AWADDR[26] S0_AXI_AWADDR[25] S0_AXI_AWADDR[24] 
+ S0_AXI_AWADDR[23] S0_AXI_AWADDR[22] S0_AXI_AWADDR[21] S0_AXI_AWADDR[20] 
+ S0_AXI_AWADDR[19] S0_AXI_AWADDR[18] S0_AXI_AWADDR[17] S0_AXI_AWADDR[16] 
+ S0_AXI_AWADDR[15] S0_AXI_AWADDR[14] S0_AXI_AWADDR[13] S0_AXI_AWADDR[12] 
+ S0_AXI_AWADDR[11] S0_AXI_AWADDR[10] S0_AXI_AWADDR[9] S0_AXI_AWADDR[8] 
+ S0_AXI_AWADDR[7] S0_AXI_AWADDR[6] S0_AXI_AWADDR[5] S0_AXI_AWADDR[4] 
+ S0_AXI_AWADDR[3] S0_AXI_AWADDR[2] S0_AXI_AWADDR[1] S0_AXI_AWADDR[0] 
+ S0_AXI_AWBURST[1] S0_AXI_AWBURST[0] S0_AXI_AWID[7] S0_AXI_AWID[6] 
+ S0_AXI_AWID[5] S0_AXI_AWID[4] S0_AXI_AWID[3] S0_AXI_AWID[2] S0_AXI_AWID[1] 
+ S0_AXI_AWID[0] S0_AXI_AWLEN[7] S0_AXI_AWLEN[6] S0_AXI_AWLEN[5] 
+ S0_AXI_AWLEN[4] S0_AXI_AWLEN[3] S0_AXI_AWLEN[2] S0_AXI_AWLEN[1] 
+ S0_AXI_AWLEN[0] S0_AXI_AWSIZE[2] S0_AXI_AWSIZE[1] S0_AXI_AWSIZE[0] 
+ S0_AXI_BID[7] S0_AXI_BID[6] S0_AXI_BID[5] S0_AXI_BID[4] S0_AXI_BID[3] 
+ S0_AXI_BID[2] S0_AXI_BID[1] S0_AXI_BID[0] S0_AXI_BRESP[1] S0_AXI_BRESP[0] 
+ S0_AXI_RDATA[31] S0_AXI_RDATA[30] S0_AXI_RDATA[29] S0_AXI_RDATA[28] 
+ S0_AXI_RDATA[27] S0_AXI_RDATA[26] S0_AXI_RDATA[25] S0_AXI_RDATA[24] 
+ S0_AXI_RDATA[23] S0_AXI_RDATA[22] S0_AXI_RDATA[21] S0_AXI_RDATA[20] 
+ S0_AXI_RDATA[19] S0_AXI_RDATA[18] S0_AXI_RDATA[17] S0_AXI_RDATA[16] 
+ S0_AXI_RDATA[15] S0_AXI_RDATA[14] S0_AXI_RDATA[13] S0_AXI_RDATA[12] 
+ S0_AXI_RDATA[11] S0_AXI_RDATA[10] S0_AXI_RDATA[9] S0_AXI_RDATA[8] 
+ S0_AXI_RDATA[7] S0_AXI_RDATA[6] S0_AXI_RDATA[5] S0_AXI_RDATA[4] 
+ S0_AXI_RDATA[3] S0_AXI_RDATA[2] S0_AXI_RDATA[1] S0_AXI_RDATA[0] S0_AXI_RID[7] 
+ S0_AXI_RID[6] S0_AXI_RID[5] S0_AXI_RID[4] S0_AXI_RID[3] S0_AXI_RID[2] 
+ S0_AXI_RID[1] S0_AXI_RID[0] S0_AXI_RRESP[1] S0_AXI_RRESP[0] S0_AXI_WDATA[31] 
+ S0_AXI_WDATA[30] S0_AXI_WDATA[29] S0_AXI_WDATA[28] S0_AXI_WDATA[27] 
+ S0_AXI_WDATA[26] S0_AXI_WDATA[25] S0_AXI_WDATA[24] S0_AXI_WDATA[23] 
+ S0_AXI_WDATA[22] S0_AXI_WDATA[21] S0_AXI_WDATA[20] S0_AXI_WDATA[19] 
+ S0_AXI_WDATA[18] S0_AXI_WDATA[17] S0_AXI_WDATA[16] S0_AXI_WDATA[15] 
+ S0_AXI_WDATA[14] S0_AXI_WDATA[13] S0_AXI_WDATA[12] S0_AXI_WDATA[11] 
+ S0_AXI_WDATA[10] S0_AXI_WDATA[9] S0_AXI_WDATA[8] S0_AXI_WDATA[7] 
+ S0_AXI_WDATA[6] S0_AXI_WDATA[5] S0_AXI_WDATA[4] S0_AXI_WDATA[3] 
+ S0_AXI_WDATA[2] S0_AXI_WDATA[1] S0_AXI_WDATA[0] S0_AXI_WID[7] S0_AXI_WID[6] 
+ S0_AXI_WID[5] S0_AXI_WID[4] S0_AXI_WID[3] S0_AXI_WID[2] S0_AXI_WID[1] 
+ S0_AXI_WID[0] S0_AXI_WSTRB[3] S0_AXI_WSTRB[2] S0_AXI_WSTRB[1] S0_AXI_WSTRB[0] 
+ S1_AXI_ARADDR[31] S1_AXI_ARADDR[30] S1_AXI_ARADDR[29] S1_AXI_ARADDR[28] 
+ S1_AXI_ARADDR[27] S1_AXI_ARADDR[26] S1_AXI_ARADDR[25] S1_AXI_ARADDR[24] 
+ S1_AXI_ARADDR[23] S1_AXI_ARADDR[22] S1_AXI_ARADDR[21] S1_AXI_ARADDR[20] 
+ S1_AXI_ARADDR[19] S1_AXI_ARADDR[18] S1_AXI_ARADDR[17] S1_AXI_ARADDR[16] 
+ S1_AXI_ARADDR[15] S1_AXI_ARADDR[14] S1_AXI_ARADDR[13] S1_AXI_ARADDR[12] 
+ S1_AXI_ARADDR[11] S1_AXI_ARADDR[10] S1_AXI_ARADDR[9] S1_AXI_ARADDR[8] 
+ S1_AXI_ARADDR[7] S1_AXI_ARADDR[6] S1_AXI_ARADDR[5] S1_AXI_ARADDR[4] 
+ S1_AXI_ARADDR[3] S1_AXI_ARADDR[2] S1_AXI_ARADDR[1] S1_AXI_ARADDR[0] 
+ S1_AXI_ARBURST[1] S1_AXI_ARBURST[0] S1_AXI_ARID[7] S1_AXI_ARID[6] 
+ S1_AXI_ARID[5] S1_AXI_ARID[4] S1_AXI_ARID[3] S1_AXI_ARID[2] S1_AXI_ARID[1] 
+ S1_AXI_ARID[0] S1_AXI_ARLEN[7] S1_AXI_ARLEN[6] S1_AXI_ARLEN[5] 
+ S1_AXI_ARLEN[4] S1_AXI_ARLEN[3] S1_AXI_ARLEN[2] S1_AXI_ARLEN[1] 
+ S1_AXI_ARLEN[0] S1_AXI_ARSIZE[2] S1_AXI_ARSIZE[1] S1_AXI_ARSIZE[0] 
+ S1_AXI_AWADDR[31] S1_AXI_AWADDR[30] S1_AXI_AWADDR[29] S1_AXI_AWADDR[28] 
+ S1_AXI_AWADDR[27] S1_AXI_AWADDR[26] S1_AXI_AWADDR[25] S1_AXI_AWADDR[24] 
+ S1_AXI_AWADDR[23] S1_AXI_AWADDR[22] S1_AXI_AWADDR[21] S1_AXI_AWADDR[20] 
+ S1_AXI_AWADDR[19] S1_AXI_AWADDR[18] S1_AXI_AWADDR[17] S1_AXI_AWADDR[16] 
+ S1_AXI_AWADDR[15] S1_AXI_AWADDR[14] S1_AXI_AWADDR[13] S1_AXI_AWADDR[12] 
+ S1_AXI_AWADDR[11] S1_AXI_AWADDR[10] S1_AXI_AWADDR[9] S1_AXI_AWADDR[8] 
+ S1_AXI_AWADDR[7] S1_AXI_AWADDR[6] S1_AXI_AWADDR[5] S1_AXI_AWADDR[4] 
+ S1_AXI_AWADDR[3] S1_AXI_AWADDR[2] S1_AXI_AWADDR[1] S1_AXI_AWADDR[0] 
+ S1_AXI_AWBURST[1] S1_AXI_AWBURST[0] S1_AXI_AWID[7] S1_AXI_AWID[6] 
+ S1_AXI_AWID[5] S1_AXI_AWID[4] S1_AXI_AWID[3] S1_AXI_AWID[2] S1_AXI_AWID[1] 
+ S1_AXI_AWID[0] S1_AXI_AWLEN[7] S1_AXI_AWLEN[6] S1_AXI_AWLEN[5] 
+ S1_AXI_AWLEN[4] S1_AXI_AWLEN[3] S1_AXI_AWLEN[2] S1_AXI_AWLEN[1] 
+ S1_AXI_AWLEN[0] S1_AXI_AWSIZE[2] S1_AXI_AWSIZE[1] S1_AXI_AWSIZE[0] 
+ S1_AXI_BID[7] S1_AXI_BID[6] S1_AXI_BID[5] S1_AXI_BID[4] S1_AXI_BID[3] 
+ S1_AXI_BID[2] S1_AXI_BID[1] S1_AXI_BID[0] S1_AXI_BRESP[1] S1_AXI_BRESP[0] 
+ S1_AXI_RDATA[31] S1_AXI_RDATA[30] S1_AXI_RDATA[29] S1_AXI_RDATA[28] 
+ S1_AXI_RDATA[27] S1_AXI_RDATA[26] S1_AXI_RDATA[25] S1_AXI_RDATA[24] 
+ S1_AXI_RDATA[23] S1_AXI_RDATA[22] S1_AXI_RDATA[21] S1_AXI_RDATA[20] 
+ S1_AXI_RDATA[19] S1_AXI_RDATA[18] S1_AXI_RDATA[17] S1_AXI_RDATA[16] 
+ S1_AXI_RDATA[15] S1_AXI_RDATA[14] S1_AXI_RDATA[13] S1_AXI_RDATA[12] 
+ S1_AXI_RDATA[11] S1_AXI_RDATA[10] S1_AXI_RDATA[9] S1_AXI_RDATA[8] 
+ S1_AXI_RDATA[7] S1_AXI_RDATA[6] S1_AXI_RDATA[5] S1_AXI_RDATA[4] 
+ S1_AXI_RDATA[3] S1_AXI_RDATA[2] S1_AXI_RDATA[1] S1_AXI_RDATA[0] S1_AXI_RID[7] 
+ S1_AXI_RID[6] S1_AXI_RID[5] S1_AXI_RID[4] S1_AXI_RID[3] S1_AXI_RID[2] 
+ S1_AXI_RID[1] S1_AXI_RID[0] S1_AXI_RRESP[1] S1_AXI_RRESP[0] S1_AXI_WDATA[31] 
+ S1_AXI_WDATA[30] S1_AXI_WDATA[29] S1_AXI_WDATA[28] S1_AXI_WDATA[27] 
+ S1_AXI_WDATA[26] S1_AXI_WDATA[25] S1_AXI_WDATA[24] S1_AXI_WDATA[23] 
+ S1_AXI_WDATA[22] S1_AXI_WDATA[21] S1_AXI_WDATA[20] S1_AXI_WDATA[19] 
+ S1_AXI_WDATA[18] S1_AXI_WDATA[17] S1_AXI_WDATA[16] S1_AXI_WDATA[15] 
+ S1_AXI_WDATA[14] S1_AXI_WDATA[13] S1_AXI_WDATA[12] S1_AXI_WDATA[11] 
+ S1_AXI_WDATA[10] S1_AXI_WDATA[9] S1_AXI_WDATA[8] S1_AXI_WDATA[7] 
+ S1_AXI_WDATA[6] S1_AXI_WDATA[5] S1_AXI_WDATA[4] S1_AXI_WDATA[3] 
+ S1_AXI_WDATA[2] S1_AXI_WDATA[1] S1_AXI_WDATA[0] S1_AXI_WID[7] S1_AXI_WID[6] 
+ S1_AXI_WID[5] S1_AXI_WID[4] S1_AXI_WID[3] S1_AXI_WID[2] S1_AXI_WID[1] 
+ S1_AXI_WID[0] S1_AXI_WSTRB[3] S1_AXI_WSTRB[2] S1_AXI_WSTRB[1] S1_AXI_WSTRB[0] 
+ S2_AXI_ARADDR[31] S2_AXI_ARADDR[30] S2_AXI_ARADDR[29] S2_AXI_ARADDR[28] 
+ S2_AXI_ARADDR[27] S2_AXI_ARADDR[26] S2_AXI_ARADDR[25] S2_AXI_ARADDR[24] 
+ S2_AXI_ARADDR[23] S2_AXI_ARADDR[22] S2_AXI_ARADDR[21] S2_AXI_ARADDR[20] 
+ S2_AXI_ARADDR[19] S2_AXI_ARADDR[18] S2_AXI_ARADDR[17] S2_AXI_ARADDR[16] 
+ S2_AXI_ARADDR[15] S2_AXI_ARADDR[14] S2_AXI_ARADDR[13] S2_AXI_ARADDR[12] 
+ S2_AXI_ARADDR[11] S2_AXI_ARADDR[10] S2_AXI_ARADDR[9] S2_AXI_ARADDR[8] 
+ S2_AXI_ARADDR[7] S2_AXI_ARADDR[6] S2_AXI_ARADDR[5] S2_AXI_ARADDR[4] 
+ S2_AXI_ARADDR[3] S2_AXI_ARADDR[2] S2_AXI_ARADDR[1] S2_AXI_ARADDR[0] 
+ S2_AXI_ARBURST[1] S2_AXI_ARBURST[0] S2_AXI_ARID[7] S2_AXI_ARID[6] 
+ S2_AXI_ARID[5] S2_AXI_ARID[4] S2_AXI_ARID[3] S2_AXI_ARID[2] S2_AXI_ARID[1] 
+ S2_AXI_ARID[0] S2_AXI_ARLEN[7] S2_AXI_ARLEN[6] S2_AXI_ARLEN[5] 
+ S2_AXI_ARLEN[4] S2_AXI_ARLEN[3] S2_AXI_ARLEN[2] S2_AXI_ARLEN[1] 
+ S2_AXI_ARLEN[0] S2_AXI_ARSIZE[2] S2_AXI_ARSIZE[1] S2_AXI_ARSIZE[0] 
+ S2_AXI_AWADDR[31] S2_AXI_AWADDR[30] S2_AXI_AWADDR[29] S2_AXI_AWADDR[28] 
+ S2_AXI_AWADDR[27] S2_AXI_AWADDR[26] S2_AXI_AWADDR[25] S2_AXI_AWADDR[24] 
+ S2_AXI_AWADDR[23] S2_AXI_AWADDR[22] S2_AXI_AWADDR[21] S2_AXI_AWADDR[20] 
+ S2_AXI_AWADDR[19] S2_AXI_AWADDR[18] S2_AXI_AWADDR[17] S2_AXI_AWADDR[16] 
+ S2_AXI_AWADDR[15] S2_AXI_AWADDR[14] S2_AXI_AWADDR[13] S2_AXI_AWADDR[12] 
+ S2_AXI_AWADDR[11] S2_AXI_AWADDR[10] S2_AXI_AWADDR[9] S2_AXI_AWADDR[8] 
+ S2_AXI_AWADDR[7] S2_AXI_AWADDR[6] S2_AXI_AWADDR[5] S2_AXI_AWADDR[4] 
+ S2_AXI_AWADDR[3] S2_AXI_AWADDR[2] S2_AXI_AWADDR[1] S2_AXI_AWADDR[0] 
+ S2_AXI_AWBURST[1] S2_AXI_AWBURST[0] S2_AXI_AWID[7] S2_AXI_AWID[6] 
+ S2_AXI_AWID[5] S2_AXI_AWID[4] S2_AXI_AWID[3] S2_AXI_AWID[2] S2_AXI_AWID[1] 
+ S2_AXI_AWID[0] S2_AXI_AWLEN[7] S2_AXI_AWLEN[6] S2_AXI_AWLEN[5] 
+ S2_AXI_AWLEN[4] S2_AXI_AWLEN[3] S2_AXI_AWLEN[2] S2_AXI_AWLEN[1] 
+ S2_AXI_AWLEN[0] S2_AXI_AWSIZE[2] S2_AXI_AWSIZE[1] S2_AXI_AWSIZE[0] 
+ S2_AXI_BID[7] S2_AXI_BID[6] S2_AXI_BID[5] S2_AXI_BID[4] S2_AXI_BID[3] 
+ S2_AXI_BID[2] S2_AXI_BID[1] S2_AXI_BID[0] S2_AXI_BRESP[1] S2_AXI_BRESP[0] 
+ S2_AXI_RDATA[31] S2_AXI_RDATA[30] S2_AXI_RDATA[29] S2_AXI_RDATA[28] 
+ S2_AXI_RDATA[27] S2_AXI_RDATA[26] S2_AXI_RDATA[25] S2_AXI_RDATA[24] 
+ S2_AXI_RDATA[23] S2_AXI_RDATA[22] S2_AXI_RDATA[21] S2_AXI_RDATA[20] 
+ S2_AXI_RDATA[19] S2_AXI_RDATA[18] S2_AXI_RDATA[17] S2_AXI_RDATA[16] 
+ S2_AXI_RDATA[15] S2_AXI_RDATA[14] S2_AXI_RDATA[13] S2_AXI_RDATA[12] 
+ S2_AXI_RDATA[11] S2_AXI_RDATA[10] S2_AXI_RDATA[9] S2_AXI_RDATA[8] 
+ S2_AXI_RDATA[7] S2_AXI_RDATA[6] S2_AXI_RDATA[5] S2_AXI_RDATA[4] 
+ S2_AXI_RDATA[3] S2_AXI_RDATA[2] S2_AXI_RDATA[1] S2_AXI_RDATA[0] S2_AXI_RID[7] 
+ S2_AXI_RID[6] S2_AXI_RID[5] S2_AXI_RID[4] S2_AXI_RID[3] S2_AXI_RID[2] 
+ S2_AXI_RID[1] S2_AXI_RID[0] S2_AXI_RRESP[1] S2_AXI_RRESP[0] S2_AXI_WDATA[31] 
+ S2_AXI_WDATA[30] S2_AXI_WDATA[29] S2_AXI_WDATA[28] S2_AXI_WDATA[27] 
+ S2_AXI_WDATA[26] S2_AXI_WDATA[25] S2_AXI_WDATA[24] S2_AXI_WDATA[23] 
+ S2_AXI_WDATA[22] S2_AXI_WDATA[21] S2_AXI_WDATA[20] S2_AXI_WDATA[19] 
+ S2_AXI_WDATA[18] S2_AXI_WDATA[17] S2_AXI_WDATA[16] S2_AXI_WDATA[15] 
+ S2_AXI_WDATA[14] S2_AXI_WDATA[13] S2_AXI_WDATA[12] S2_AXI_WDATA[11] 
+ S2_AXI_WDATA[10] S2_AXI_WDATA[9] S2_AXI_WDATA[8] S2_AXI_WDATA[7] 
+ S2_AXI_WDATA[6] S2_AXI_WDATA[5] S2_AXI_WDATA[4] S2_AXI_WDATA[3] 
+ S2_AXI_WDATA[2] S2_AXI_WDATA[1] S2_AXI_WDATA[0] S2_AXI_WID[7] S2_AXI_WID[6] 
+ S2_AXI_WID[5] S2_AXI_WID[4] S2_AXI_WID[3] S2_AXI_WID[2] S2_AXI_WID[1] 
+ S2_AXI_WID[0] S2_AXI_WSTRB[3] S2_AXI_WSTRB[2] S2_AXI_WSTRB[1] S2_AXI_WSTRB[0] 
+ paddr[31] paddr[30] paddr[29] paddr[28] paddr[27] paddr[26] paddr[25] 
+ paddr[24] paddr[23] paddr[22] paddr[21] paddr[20] paddr[19] paddr[18] 
+ paddr[17] paddr[16] paddr[15] paddr[14] paddr[13] paddr[12] paddr[11] 
+ paddr[10] paddr[9] paddr[8] paddr[7] paddr[6] paddr[5] paddr[4] paddr[3] 
+ paddr[2] paddr[1] paddr[0] prdata[31] prdata[30] prdata[29] prdata[28] 
+ prdata[27] prdata[26] prdata[25] prdata[24] prdata[23] prdata[22] prdata[21] 
+ prdata[20] prdata[19] prdata[18] prdata[17] prdata[16] prdata[15] prdata[14] 
+ prdata[13] prdata[12] prdata[11] prdata[10] prdata[9] prdata[8] prdata[7] 
+ prdata[6] prdata[5] prdata[4] prdata[3] prdata[2] prdata[1] prdata[0] 
+ pwdata[31] pwdata[30] pwdata[29] pwdata[28] pwdata[27] pwdata[26] pwdata[25] 
+ pwdata[24] pwdata[23] pwdata[22] pwdata[21] pwdata[20] pwdata[19] pwdata[18] 
+ pwdata[17] pwdata[16] pwdata[15] pwdata[14] pwdata[13] pwdata[12] pwdata[11] 
+ pwdata[10] pwdata[9] pwdata[8] pwdata[7] pwdata[6] pwdata[5] pwdata[4] 
+ pwdata[3] pwdata[2] pwdata[1] pwdata[0] 
*.CONNECT S0_AXI_ARID[7] net1419
Xoutput791 BUF_X1 net791 S0_AXI_ARADDR[13] 
Xoutput790 BUF_X1 $PINS A=net790 Z=S0_AXI_ARADDR[12] 
Xoutput789 BUF_X1 $PINS A=net789 Z=S0_AXI_ARADDR[11] 
Xoutput788 BUF_X1 $PINS A=net788 Z=S0_AXI_ARADDR[10] 
Xoutput787 BUF_X1 $PINS A=net787 Z=S0_AXI_ARADDR[0] 
Xoutput786 BUF_X1 $PINS A=net786 Z=M2_AXI_WREADY 
Xoutput785 BUF_X1 $PINS A=net785 Z=M2_AXI_RVALID 
Xoutput784 BUF_X1 $PINS A=net784 Z=M2_AXI_RRESP[1] 
X_21142_ MUX2_X1 $PINS A=u_fifo_aw_m0.Mem[0][27] B=u_fifo_aw_m0.Mem[2][27] 
+ S=_00013_ Z=_07217_ 
X_21143_ MUX2_X1 $PINS A=u_fifo_aw_m0.Mem[1][27] B=u_fifo_aw_m0.Mem[3][27] 
+ S=_00013_ Z=_07218_ 
Xoutput783 BUF_X1 $PINS A=net783 Z=M2_AXI_RRESP[0] 
Xoutput782 BUF_X1 $PINS A=net782 Z=M2_AXI_RLAST 
X_21146_ MUX2_X2 $PINS A=_07217_ B=_07218_ S=net1407 Z=_07221_ 
X_21147_ MUX2_X1 $PINS A=u_fifo_aw_m0.Mem[0][36] B=u_fifo_aw_m0.Mem[2][36] 
+ S=net1405 Z=_07222_ 
X_21148_ MUX2_X1 $PINS A=u_fifo_aw_m0.Mem[1][36] B=u_fifo_aw_m0.Mem[3][36] 
+ S=net1405 Z=_07223_ 
X_21149_ MUX2_X2 $PINS A=_07222_ B=_07223_ S=net1407 Z=_07224_ 
Xoutput781 BUF_X1 $PINS A=net781 Z=M2_AXI_RID[3] 
X_21151_ MUX2_X1 $PINS A=u_fifo_aw_m0.Mem[0][34] B=u_fifo_aw_m0.Mem[2][34] 
+ S=net1405 Z=_07226_ 
X_21152_ MUX2_X1 $PINS A=u_fifo_aw_m0.Mem[1][34] B=u_fifo_aw_m0.Mem[3][34] 
+ S=net1405 Z=_07227_ 
Xoutput780 BUF_X1 $PINS A=net780 Z=M2_AXI_RID[2] 
X_21154_ MUX2_X2 $PINS A=_07226_ B=_07227_ S=net1407 Z=_07229_ 
Xoutput779 BUF_X1 $PINS A=net779 Z=M2_AXI_RID[1] 
X_21156_ MUX2_X1 $PINS A=u_fifo_aw_m0.Mem[0][30] B=u_fifo_aw_m0.Mem[2][30] 
+ S=net1405 Z=_07231_ 
X_21157_ MUX2_X1 $PINS A=u_fifo_aw_m0.Mem[1][30] B=u_fifo_aw_m0.Mem[3][30] 
+ S=net1405 Z=_07232_ 
X_21158_ MUX2_X2 $PINS A=_07231_ B=_07232_ S=net1407 Z=_07233_ 
X_21159_ MUX2_X1 $PINS A=u_fifo_aw_m0.Mem[0][32] B=u_fifo_aw_m0.Mem[2][32] 
+ S=net1405 Z=_07234_ 
X_21160_ MUX2_X1 $PINS A=u_fifo_aw_m0.Mem[1][32] B=u_fifo_aw_m0.Mem[3][32] 
+ S=net1405 Z=_07235_ 
X_21161_ MUX2_X2 $PINS A=_07234_ B=_07235_ S=net1407 Z=_07236_ 
X_21162_ NOR4_X4 $PINS A1=_07224_ A2=_07229_ A3=_07233_ A4=_07236_ ZN=_07237_ 
X_21163_ MUX2_X1 $PINS A=u_fifo_aw_m0.Mem[0][43] B=u_fifo_aw_m0.Mem[2][43] 
+ S=net1405 Z=_07238_ 
X_21164_ MUX2_X1 $PINS A=u_fifo_aw_m0.Mem[1][43] B=u_fifo_aw_m0.Mem[3][43] 
+ S=net1405 Z=_07239_ 
X_21165_ MUX2_X2 $PINS A=_07238_ B=_07239_ S=net1407 Z=_07240_ 
X_21166_ MUX2_X1 $PINS A=u_fifo_aw_m0.Mem[0][28] B=u_fifo_aw_m0.Mem[2][28] 
+ S=net1405 Z=_07241_ 
X_21167_ MUX2_X1 $PINS A=u_fifo_aw_m0.Mem[1][28] B=u_fifo_aw_m0.Mem[3][28] 
+ S=net1405 Z=_07242_ 
X_21168_ MUX2_X2 $PINS A=_07241_ B=_07242_ S=net1407 Z=_07243_ 
X_21169_ MUX2_X1 $PINS A=u_fifo_aw_m0.Mem[0][42] B=u_fifo_aw_m0.Mem[2][42] 
+ S=net1405 Z=_07244_ 
X_21170_ MUX2_X1 $PINS A=u_fifo_aw_m0.Mem[1][42] B=u_fifo_aw_m0.Mem[3][42] 
+ S=net1405 Z=_07245_ 
X_21171_ MUX2_X2 $PINS A=_07244_ B=_07245_ S=net1407 Z=_07246_ 
X_21172_ MUX2_X1 $PINS A=u_fifo_aw_m0.Mem[0][33] B=u_fifo_aw_m0.Mem[2][33] 
+ S=net1405 Z=_07247_ 
X_21173_ MUX2_X1 $PINS A=u_fifo_aw_m0.Mem[1][33] B=u_fifo_aw_m0.Mem[3][33] 
+ S=net1405 Z=_07248_ 
X_21174_ MUX2_X2 $PINS A=_07247_ B=_07248_ S=net1407 Z=_07249_ 
X_21175_ NOR4_X4 $PINS A1=_07240_ A2=_07243_ A3=_07246_ A4=_07249_ ZN=_07250_ 
X_21176_ MUX2_X1 $PINS A=u_fifo_aw_m0.Mem[0][39] B=u_fifo_aw_m0.Mem[2][39] 
+ S=net1406 Z=_07251_ 
X_21177_ MUX2_X1 $PINS A=u_fifo_aw_m0.Mem[1][39] B=u_fifo_aw_m0.Mem[3][39] 
+ S=net1406 Z=_07252_ 
X_21178_ MUX2_X2 $PINS A=_07251_ B=_07252_ S=net1407 Z=_07253_ 
X_21179_ MUX2_X1 $PINS A=u_fifo_aw_m0.Mem[0][37] B=u_fifo_aw_m0.Mem[2][37] 
+ S=net1405 Z=_07254_ 
X_21180_ MUX2_X1 $PINS A=u_fifo_aw_m0.Mem[1][37] B=u_fifo_aw_m0.Mem[3][37] 
+ S=net1405 Z=_07255_ 
X_21181_ MUX2_X2 $PINS A=_07254_ B=_07255_ S=net1407 Z=_07256_ 
X_21182_ NOR2_X2 $PINS A1=_07253_ A2=_07256_ ZN=_07257_ 
X_21183_ MUX2_X1 $PINS A=u_fifo_aw_m0.Mem[0][25] B=u_fifo_aw_m0.Mem[2][25] 
+ S=net1405 Z=_07258_ 
X_21184_ MUX2_X1 $PINS A=u_fifo_aw_m0.Mem[1][25] B=u_fifo_aw_m0.Mem[3][25] 
+ S=net1405 Z=_07259_ 
X_21185_ MUX2_X2 $PINS A=_07258_ B=_07259_ S=net1407 Z=_07260_ 
X_21186_ MUX2_X1 $PINS A=u_fifo_aw_m0.Mem[0][44] B=u_fifo_aw_m0.Mem[2][44] 
+ S=net1405 Z=_07261_ 
X_21187_ MUX2_X1 $PINS A=u_fifo_aw_m0.Mem[1][44] B=u_fifo_aw_m0.Mem[3][44] 
+ S=net1405 Z=_07262_ 
X_21188_ MUX2_X2 $PINS A=_07261_ B=_07262_ S=net1407 Z=_07263_ 
X_21189_ MUX2_X1 $PINS A=u_fifo_aw_m0.Mem[0][35] B=u_fifo_aw_m0.Mem[2][35] 
+ S=net1405 Z=_07264_ 
X_21190_ MUX2_X1 $PINS A=u_fifo_aw_m0.Mem[1][35] B=u_fifo_aw_m0.Mem[3][35] 
+ S=net1405 Z=_07265_ 
X_21191_ MUX2_X2 $PINS A=_07264_ B=_07265_ S=net1407 Z=_07266_ 
X_21192_ MUX2_X1 $PINS A=u_fifo_aw_m0.Mem[0][31] B=u_fifo_aw_m0.Mem[2][31] 
+ S=net1405 Z=_07267_ 
X_21193_ MUX2_X1 $PINS A=u_fifo_aw_m0.Mem[1][31] B=u_fifo_aw_m0.Mem[3][31] 
+ S=net1405 Z=_07268_ 
X_21194_ MUX2_X2 $PINS A=_07267_ B=_07268_ S=net1407 Z=_07269_ 
X_21195_ NOR4_X4 $PINS A1=_07260_ A2=_07263_ A3=_07266_ A4=_07269_ ZN=_07270_ 
X_21196_ AND4_X2 $PINS A1=_07237_ A2=_07250_ A3=_07257_ A4=_07270_ ZN=_07271_ 
X_21197_ MUX2_X1 $PINS A=u_fifo_aw_m0.Mem[0][29] B=u_fifo_aw_m0.Mem[2][29] 
+ S=net1405 Z=_07272_ 
X_21198_ MUX2_X1 $PINS A=u_fifo_aw_m0.Mem[1][29] B=u_fifo_aw_m0.Mem[3][29] 
+ S=net1405 Z=_07273_ 
X_21199_ MUX2_X2 $PINS A=_07272_ B=_07273_ S=net1407 Z=_07274_ 
X_21200_ MUX2_X1 $PINS A=u_fifo_aw_m0.Mem[0][41] B=u_fifo_aw_m0.Mem[2][41] 
+ S=net1406 Z=_07275_ 
X_21201_ MUX2_X1 $PINS A=u_fifo_aw_m0.Mem[1][41] B=u_fifo_aw_m0.Mem[3][41] 
+ S=net1406 Z=_07276_ 
X_21202_ MUX2_X2 $PINS A=_07275_ B=_07276_ S=net1407 Z=_07277_ 
X_21203_ MUX2_X1 $PINS A=u_fifo_aw_m0.Mem[0][38] B=u_fifo_aw_m0.Mem[2][38] 
+ S=net1405 Z=_07278_ 
X_21204_ MUX2_X1 $PINS A=u_fifo_aw_m0.Mem[1][38] B=u_fifo_aw_m0.Mem[3][38] 
+ S=net1405 Z=_07279_ 
X_21205_ MUX2_X2 $PINS A=_07278_ B=_07279_ S=net1407 Z=_07280_ 
X_21206_ MUX2_X1 $PINS A=u_fifo_aw_m0.Mem[0][40] B=u_fifo_aw_m0.Mem[2][40] 
+ S=net1405 Z=_07281_ 
X_21207_ MUX2_X1 $PINS A=u_fifo_aw_m0.Mem[1][40] B=u_fifo_aw_m0.Mem[3][40] 
+ S=net1405 Z=_07282_ 
X_21208_ MUX2_X2 $PINS A=_07281_ B=_07282_ S=net1407 Z=_07283_ 
X_21209_ NOR4_X4 $PINS A1=_07274_ A2=_07277_ A3=_07280_ A4=_07283_ ZN=_07284_ 
X_21210_ MUX2_X1 $PINS A=u_fifo_aw_m0.Mem[0][26] B=u_fifo_aw_m0.Mem[2][26] 
+ S=_00013_ Z=_07285_ 
X_21211_ MUX2_X1 $PINS A=u_fifo_aw_m0.Mem[1][26] B=u_fifo_aw_m0.Mem[3][26] 
+ S=_00013_ Z=_07286_ 
X_21212_ MUX2_X2 $PINS A=_07285_ B=_07286_ S=net1407 Z=_07287_ 
Xoutput778 BUF_X1 $PINS A=net778 Z=M2_AXI_RID[0] 
Xoutput777 BUF_X1 $PINS A=net777 Z=M2_AXI_RDATA[9] 
X_21215_ XOR2_X2 $PINS A=u_fifo_aw_m0.fifo_tail[0] B=u_fifo_aw_m0.fifo_head[0] 
+ Z=_07290_ 
X_21216_ XOR2_X2 $PINS A=u_fifo_aw_m0.fifo_tail[2] B=u_fifo_aw_m0.fifo_head[2] 
+ Z=_07291_ 
Xoutput776 BUF_X1 $PINS A=net776 Z=M2_AXI_RDATA[8] 
X_21218_ XOR2_X2 $PINS A=u_fifo_aw_m0.fifo_tail[1] B=u_fifo_aw_m0.fifo_head[1] 
+ Z=_07293_ 
X_21219_ NOR3_X4 $PINS A1=_07290_ A2=_07291_ A3=_07293_ ZN=_07294_ 
X_21220_ NOR2_X1 $PINS A1=_07287_ A2=_07294_ ZN=_07295_ 
X_21221_ AND2_X1 $PINS A1=_07284_ A2=_07295_ ZN=_07296_ 
X_21222_ NAND3_X2 $PINS A1=_07221_ A2=_07271_ A3=_07296_ ZN=_07297_ 
Xoutput775 BUF_X1 $PINS A=net775 Z=M2_AXI_RDATA[7] 
X_21224_ XOR2_X2 $PINS A=u_fifo_aw_m1.fifo_tail[0] B=u_fifo_aw_m1.fifo_head[0] 
+ Z=_07299_ 
X_21225_ XOR2_X2 $PINS A=u_fifo_aw_m1.fifo_tail[2] B=u_fifo_aw_m1.fifo_head[2] 
+ Z=_07300_ 
Xoutput774 BUF_X1 $PINS A=net774 Z=M2_AXI_RDATA[6] 
X_21227_ XOR2_X2 $PINS A=u_fifo_aw_m1.fifo_tail[1] B=u_fifo_aw_m1.fifo_head[1] 
+ Z=_07302_ 
X_21228_ NOR3_X4 $PINS A1=_07299_ A2=_07300_ A3=_07302_ ZN=_07303_ 
Xoutput773 BUF_X1 $PINS A=net773 Z=M2_AXI_RDATA[5] 
Xoutput772 BUF_X1 $PINS A=net772 Z=M2_AXI_RDATA[4] 
Xoutput771 BUF_X1 $PINS A=net771 Z=M2_AXI_RDATA[3] 
X_21232_ MUX2_X1 $PINS A=u_fifo_aw_m1.Mem[0][27] B=u_fifo_aw_m1.Mem[2][27] 