$ CDL Netlist generated by OpenROAD
$.include "/home/chf/OpenROAD-flow-scripts/flow/results/PDK/nangate45/cdl/NangateOpenCellLibrary.cdl"
*.BUSDELIMITER [

.SUBCKT axi_interconnect AXI_CLK AXI_RSTn M0_AXI_ARADDR[0]
+ M0_AXI_ARADDR[10] M0_AXI_ARADDR[11] M0_AXI_ARADDR[12] M0_AXI_ARADDR[13]
+ M0_AXI_ARADDR[14] M0_AXI_ARADDR[15] M0_AXI_ARADDR[16] M0_AXI_ARADDR[17]
+ M0_AXI_ARADDR[18] M0_AXI_ARADDR[19] M0_AXI_ARADDR[1] M0_AXI_ARADDR[20]
+ M0_AXI_ARADDR[21] M0_AXI_ARADDR[22] M0_AXI_ARADDR[23] M0_AXI_ARADDR[24]
+ M0_AXI_ARADDR[25] M0_AXI_ARADDR[26] M0_AXI_ARADDR[27] M0_AXI_ARADDR[28]
+ M0_AXI_ARADDR[29] M0_AXI_ARADDR[2] M0_AXI_ARADDR[30] M0_AXI_ARADDR[31]
+ M0_AXI_ARADDR[3] M0_AXI_ARADDR[4] M0_AXI_ARADDR[5] M0_AXI_ARADDR[6]
+ M0_AXI_ARADDR[7] M0_AXI_ARADDR[8] M0_AXI_ARADDR[9] M0_AXI_ARBURST[0]
+ M0_AXI_ARBURST[1] M0_AXI_ARID[0] M0_AXI_ARID[1] M0_AXI_ARID[2]
+ M0_AXI_ARID[3] M0_AXI_ARLEN[0] M0_AXI_ARLEN[1] M0_AXI_ARLEN[2]
+ M0_AXI_ARLEN[3] M0_AXI_ARLEN[4] M0_AXI_ARLEN[5] M0_AXI_ARLEN[6]
+ M0_AXI_ARLEN[7] M0_AXI_ARREADY M0_AXI_ARSIZE[0] M0_AXI_ARSIZE[1]
+ M0_AXI_ARSIZE[2] M0_AXI_ARVALID M0_AXI_AWADDR[0] M0_AXI_AWADDR[10]
+ M0_AXI_AWADDR[11] M0_AXI_AWADDR[12] M0_AXI_AWADDR[13] M0_AXI_AWADDR[14]
+ M0_AXI_AWADDR[15] M0_AXI_AWADDR[16] M0_AXI_AWADDR[17] M0_AXI_AWADDR[18]
+ M0_AXI_AWADDR[19] M0_AXI_AWADDR[1] M0_AXI_AWADDR[20] M0_AXI_AWADDR[21]
+ M0_AXI_AWADDR[22] M0_AXI_AWADDR[23] M0_AXI_AWADDR[24] M0_AXI_AWADDR[25]
+ M0_AXI_AWADDR[26] M0_AXI_AWADDR[27] M0_AXI_AWADDR[28] M0_AXI_AWADDR[29]
+ M0_AXI_AWADDR[2] M0_AXI_AWADDR[30] M0_AXI_AWADDR[31] M0_AXI_AWADDR[3]
+ M0_AXI_AWADDR[4] M0_AXI_AWADDR[5] M0_AXI_AWADDR[6] M0_AXI_AWADDR[7]
+ M0_AXI_AWADDR[8] M0_AXI_AWADDR[9] M0_AXI_AWBURST[0] M0_AXI_AWBURST[1]
+ M0_AXI_AWID[0] M0_AXI_AWID[1] M0_AXI_AWID[2] M0_AXI_AWID[3]
+ M0_AXI_AWLEN[0] M0_AXI_AWLEN[1] M0_AXI_AWLEN[2] M0_AXI_AWLEN[3]
+ M0_AXI_AWLEN[4] M0_AXI_AWLEN[5] M0_AXI_AWLEN[6] M0_AXI_AWLEN[7]
+ M0_AXI_AWREADY M0_AXI_AWSIZE[0] M0_AXI_AWSIZE[1] M0_AXI_AWSIZE[2]
+ M0_AXI_AWVALID M0_AXI_BID[0] M0_AXI_BID[1] M0_AXI_BID[2] M0_AXI_BID[3]
+ M0_AXI_BREADY M0_AXI_BRESP[0] M0_AXI_BRESP[1] M0_AXI_BVALID
+ M0_AXI_RDATA[0] M0_AXI_RDATA[10] M0_AXI_RDATA[11] M0_AXI_RDATA[12]
+ M0_AXI_RDATA[13] M0_AXI_RDATA[14] M0_AXI_RDATA[15] M0_AXI_RDATA[16]
+ M0_AXI_RDATA[17] M0_AXI_RDATA[18] M0_AXI_RDATA[19] M0_AXI_RDATA[1]
+ M0_AXI_RDATA[20] M0_AXI_RDATA[21] M0_AXI_RDATA[22] M0_AXI_RDATA[23]
+ M0_AXI_RDATA[24] M0_AXI_RDATA[25] M0_AXI_RDATA[26] M0_AXI_RDATA[27]
+ M0_AXI_RDATA[28] M0_AXI_RDATA[29] M0_AXI_RDATA[2] M0_AXI_RDATA[30]
+ M0_AXI_RDATA[31] M0_AXI_RDATA[3] M0_AXI_RDATA[4] M0_AXI_RDATA[5]
+ M0_AXI_RDATA[6] M0_AXI_RDATA[7] M0_AXI_RDATA[8] M0_AXI_RDATA[9]
+ M0_AXI_RID[0] M0_AXI_RID[1] M0_AXI_RID[2] M0_AXI_RID[3] M0_AXI_RLAST
+ M0_AXI_RREADY M0_AXI_RRESP[0] M0_AXI_RRESP[1] M0_AXI_RVALID
+ M0_AXI_WDATA[0] M0_AXI_WDATA[10] M0_AXI_WDATA[11] M0_AXI_WDATA[12]
+ M0_AXI_WDATA[13] M0_AXI_WDATA[14] M0_AXI_WDATA[15] M0_AXI_WDATA[16]
+ M0_AXI_WDATA[17] M0_AXI_WDATA[18] M0_AXI_WDATA[19] M0_AXI_WDATA[1]
+ M0_AXI_WDATA[20] M0_AXI_WDATA[21] M0_AXI_WDATA[22] M0_AXI_WDATA[23]
+ M0_AXI_WDATA[24] M0_AXI_WDATA[25] M0_AXI_WDATA[26] M0_AXI_WDATA[27]
+ M0_AXI_WDATA[28] M0_AXI_WDATA[29] M0_AXI_WDATA[2] M0_AXI_WDATA[30]
+ M0_AXI_WDATA[31] M0_AXI_WDATA[3] M0_AXI_WDATA[4] M0_AXI_WDATA[5]
+ M0_AXI_WDATA[6] M0_AXI_WDATA[7] M0_AXI_WDATA[8] M0_AXI_WDATA[9]
+ M0_AXI_WID[0] M0_AXI_WID[1] M0_AXI_WID[2] M0_AXI_WID[3] M0_AXI_WLAST
+ M0_AXI_WREADY M0_AXI_WSTRB[0] M0_AXI_WSTRB[1] M0_AXI_WSTRB[2]
+ M0_AXI_WSTRB[3] M0_AXI_WVALID M1_AXI_ARADDR[0] M1_AXI_ARADDR[10]
+ M1_AXI_ARADDR[11] M1_AXI_ARADDR[12] M1_AXI_ARADDR[13] M1_AXI_ARADDR[14]
+ M1_AXI_ARADDR[15] M1_AXI_ARADDR[16] M1_AXI_ARADDR[17] M1_AXI_ARADDR[18]
+ M1_AXI_ARADDR[19] M1_AXI_ARADDR[1] M1_AXI_ARADDR[20] M1_AXI_ARADDR[21]
+ M1_AXI_ARADDR[22] M1_AXI_ARADDR[23] M1_AXI_ARADDR[24] M1_AXI_ARADDR[25]
+ M1_AXI_ARADDR[26] M1_AXI_ARADDR[27] M1_AXI_ARADDR[28] M1_AXI_ARADDR[29]
+ M1_AXI_ARADDR[2] M1_AXI_ARADDR[30] M1_AXI_ARADDR[31] M1_AXI_ARADDR[3]
+ M1_AXI_ARADDR[4] M1_AXI_ARADDR[5] M1_AXI_ARADDR[6] M1_AXI_ARADDR[7]
+ M1_AXI_ARADDR[8] M1_AXI_ARADDR[9] M1_AXI_ARBURST[0] M1_AXI_ARBURST[1]
+ M1_AXI_ARID[0] M1_AXI_ARID[1] M1_AXI_ARID[2] M1_AXI_ARID[3]
+ M1_AXI_ARLEN[0] M1_AXI_ARLEN[1] M1_AXI_ARLEN[2] M1_AXI_ARLEN[3]
+ M1_AXI_ARLEN[4] M1_AXI_ARLEN[5] M1_AXI_ARLEN[6] M1_AXI_ARLEN[7]
+ M1_AXI_ARREADY M1_AXI_ARSIZE[0] M1_AXI_ARSIZE[1] M1_AXI_ARSIZE[2]
+ M1_AXI_ARVALID M1_AXI_AWADDR[0] M1_AXI_AWADDR[10] M1_AXI_AWADDR[11]
+ M1_AXI_AWADDR[12] M1_AXI_AWADDR[13] M1_AXI_AWADDR[14] M1_AXI_AWADDR[15]
+ M1_AXI_AWADDR[16] M1_AXI_AWADDR[17] M1_AXI_AWADDR[18] M1_AXI_AWADDR[19]
+ M1_AXI_AWADDR[1] M1_AXI_AWADDR[20] M1_AXI_AWADDR[21] M1_AXI_AWADDR[22]
+ M1_AXI_AWADDR[23] M1_AXI_AWADDR[24] M1_AXI_AWADDR[25] M1_AXI_AWADDR[26]
+ M1_AXI_AWADDR[27] M1_AXI_AWADDR[28] M1_AXI_AWADDR[29] M1_AXI_AWADDR[2]
+ M1_AXI_AWADDR[30] M1_AXI_AWADDR[31] M1_AXI_AWADDR[3] M1_AXI_AWADDR[4]
+ M1_AXI_AWADDR[5] M1_AXI_AWADDR[6] M1_AXI_AWADDR[7] M1_AXI_AWADDR[8]
+ M1_AXI_AWADDR[9] M1_AXI_AWBURST[0] M1_AXI_AWBURST[1] M1_AXI_AWID[0]
+ M1_AXI_AWID[1] M1_AXI_AWID[2] M1_AXI_AWID[3] M1_AXI_AWLEN[0]
+ M1_AXI_AWLEN[1] M1_AXI_AWLEN[2] M1_AXI_AWLEN[3] M1_AXI_AWLEN[4]
+ M1_AXI_AWLEN[5] M1_AXI_AWLEN[6] M1_AXI_AWLEN[7] M1_AXI_AWREADY
+ M1_AXI_AWSIZE[0] M1_AXI_AWSIZE[1] M1_AXI_AWSIZE[2] M1_AXI_AWVALID
+ M1_AXI_BID[0] M1_AXI_BID[1] M1_AXI_BID[2] M1_AXI_BID[3] M1_AXI_BREADY
+ M1_AXI_BRESP[0] M1_AXI_BRESP[1] M1_AXI_BVALID M1_AXI_RDATA[0]
+ M1_AXI_RDATA[10] M1_AXI_RDATA[11] M1_AXI_RDATA[12] M1_AXI_RDATA[13]
+ M1_AXI_RDATA[14] M1_AXI_RDATA[15] M1_AXI_RDATA[16] M1_AXI_RDATA[17]
+ M1_AXI_RDATA[18] M1_AXI_RDATA[19] M1_AXI_RDATA[1] M1_AXI_RDATA[20]
+ M1_AXI_RDATA[21] M1_AXI_RDATA[22] M1_AXI_RDATA[23] M1_AXI_RDATA[24]
+ M1_AXI_RDATA[25] M1_AXI_RDATA[26] M1_AXI_RDATA[27] M1_AXI_RDATA[28]
+ M1_AXI_RDATA[29] M1_AXI_RDATA[2] M1_AXI_RDATA[30] M1_AXI_RDATA[31]
+ M1_AXI_RDATA[3] M1_AXI_RDATA[4] M1_AXI_RDATA[5] M1_AXI_RDATA[6]
+ M1_AXI_RDATA[7] M1_AXI_RDATA[8] M1_AXI_RDATA[9] M1_AXI_RID[0]
+ M1_AXI_RID[1] M1_AXI_RID[2] M1_AXI_RID[3] M1_AXI_RLAST M1_AXI_RREADY
+ M1_AXI_RRESP[0] M1_AXI_RRESP[1] M1_AXI_RVALID M1_AXI_WDATA[0]
+ M1_AXI_WDATA[10] M1_AXI_WDATA[11] M1_AXI_WDATA[12] M1_AXI_WDATA[13]
+ M1_AXI_WDATA[14] M1_AXI_WDATA[15] M1_AXI_WDATA[16] M1_AXI_WDATA[17]
+ M1_AXI_WDATA[18] M1_AXI_WDATA[19] M1_AXI_WDATA[1] M1_AXI_WDATA[20]
+ M1_AXI_WDATA[21] M1_AXI_WDATA[22] M1_AXI_WDATA[23] M1_AXI_WDATA[24]
+ M1_AXI_WDATA[25] M1_AXI_WDATA[26] M1_AXI_WDATA[27] M1_AXI_WDATA[28]
+ M1_AXI_WDATA[29] M1_AXI_WDATA[2] M1_AXI_WDATA[30] M1_AXI_WDATA[31]
+ M1_AXI_WDATA[3] M1_AXI_WDATA[4] M1_AXI_WDATA[5] M1_AXI_WDATA[6]
+ M1_AXI_WDATA[7] M1_AXI_WDATA[8] M1_AXI_WDATA[9] M1_AXI_WID[0]
+ M1_AXI_WID[1] M1_AXI_WID[2] M1_AXI_WID[3] M1_AXI_WLAST M1_AXI_WREADY
+ M1_AXI_WSTRB[0] M1_AXI_WSTRB[1] M1_AXI_WSTRB[2] M1_AXI_WSTRB[3]
+ M1_AXI_WVALID M2_AXI_ARADDR[0] M2_AXI_ARADDR[10] M2_AXI_ARADDR[11]
+ M2_AXI_ARADDR[12] M2_AXI_ARADDR[13] M2_AXI_ARADDR[14] M2_AXI_ARADDR[15]
+ M2_AXI_ARADDR[16] M2_AXI_ARADDR[17] M2_AXI_ARADDR[18] M2_AXI_ARADDR[19]
+ M2_AXI_ARADDR[1] M2_AXI_ARADDR[20] M2_AXI_ARADDR[21] M2_AXI_ARADDR[22]
+ M2_AXI_ARADDR[23] M2_AXI_ARADDR[24] M2_AXI_ARADDR[25] M2_AXI_ARADDR[26]
+ M2_AXI_ARADDR[27] M2_AXI_ARADDR[28] M2_AXI_ARADDR[29] M2_AXI_ARADDR[2]
+ M2_AXI_ARADDR[30] M2_AXI_ARADDR[31] M2_AXI_ARADDR[3] M2_AXI_ARADDR[4]
+ M2_AXI_ARADDR[5] M2_AXI_ARADDR[6] M2_AXI_ARADDR[7] M2_AXI_ARADDR[8]
+ M2_AXI_ARADDR[9] M2_AXI_ARBURST[0] M2_AXI_ARBURST[1] M2_AXI_ARID[0]
+ M2_AXI_ARID[1] M2_AXI_ARID[2] M2_AXI_ARID[3] M2_AXI_ARLEN[0]
+ M2_AXI_ARLEN[1] M2_AXI_ARLEN[2] M2_AXI_ARLEN[3] M2_AXI_ARLEN[4]
+ M2_AXI_ARLEN[5] M2_AXI_ARLEN[6] M2_AXI_ARLEN[7] M2_AXI_ARREADY
+ M2_AXI_ARSIZE[0] M2_AXI_ARSIZE[1] M2_AXI_ARSIZE[2] M2_AXI_ARVALID
+ M2_AXI_AWADDR[0] M2_AXI_AWADDR[10] M2_AXI_AWADDR[11] M2_AXI_AWADDR[12]
+ M2_AXI_AWADDR[13] M2_AXI_AWADDR[14] M2_AXI_AWADDR[15] M2_AXI_AWADDR[16]
+ M2_AXI_AWADDR[17] M2_AXI_AWADDR[18] M2_AXI_AWADDR[19] M2_AXI_AWADDR[1]
+ M2_AXI_AWADDR[20] M2_AXI_AWADDR[21] M2_AXI_AWADDR[22] M2_AXI_AWADDR[23]
+ M2_AXI_AWADDR[24] M2_AXI_AWADDR[25] M2_AXI_AWADDR[26] M2_AXI_AWADDR[27]
+ M2_AXI_AWADDR[28] M2_AXI_AWADDR[29] M2_AXI_AWADDR[2] M2_AXI_AWADDR[30]
+ M2_AXI_AWADDR[31] M2_AXI_AWADDR[3] M2_AXI_AWADDR[4] M2_AXI_AWADDR[5]
+ M2_AXI_AWADDR[6] M2_AXI_AWADDR[7] M2_AXI_AWADDR[8] M2_AXI_AWADDR[9]
+ M2_AXI_AWBURST[0] M2_AXI_AWBURST[1] M2_AXI_AWID[0] M2_AXI_AWID[1]
+ M2_AXI_AWID[2] M2_AXI_AWID[3] M2_AXI_AWLEN[0] M2_AXI_AWLEN[1]
+ M2_AXI_AWLEN[2] M2_AXI_AWLEN[3] M2_AXI_AWLEN[4] M2_AXI_AWLEN[5]
+ M2_AXI_AWLEN[6] M2_AXI_AWLEN[7] M2_AXI_AWREADY M2_AXI_AWSIZE[0]
+ M2_AXI_AWSIZE[1] M2_AXI_AWSIZE[2] M2_AXI_AWVALID M2_AXI_BID[0]
+ M2_AXI_BID[1] M2_AXI_BID[2] M2_AXI_BID[3] M2_AXI_BREADY M2_AXI_BRESP[0]
+ M2_AXI_BRESP[1] M2_AXI_BVALID M2_AXI_RDATA[0] M2_AXI_RDATA[10]
+ M2_AXI_RDATA[11] M2_AXI_RDATA[12] M2_AXI_RDATA[13] M2_AXI_RDATA[14]
+ M2_AXI_RDATA[15] M2_AXI_RDATA[16] M2_AXI_RDATA[17] M2_AXI_RDATA[18]
+ M2_AXI_RDATA[19] M2_AXI_RDATA[1] M2_AXI_RDATA[20] M2_AXI_RDATA[21]
+ M2_AXI_RDATA[22] M2_AXI_RDATA[23] M2_AXI_RDATA[24] M2_AXI_RDATA[25]
+ M2_AXI_RDATA[26] M2_AXI_RDATA[27] M2_AXI_RDATA[28] M2_AXI_RDATA[29]
+ M2_AXI_RDATA[2] M2_AXI_RDATA[30] M2_AXI_RDATA[31] M2_AXI_RDATA[3]
+ M2_AXI_RDATA[4] M2_AXI_RDATA[5] M2_AXI_RDATA[6] M2_AXI_RDATA[7]
+ M2_AXI_RDATA[8] M2_AXI_RDATA[9] M2_AXI_RID[0] M2_AXI_RID[1]
+ M2_AXI_RID[2] M2_AXI_RID[3] M2_AXI_RLAST M2_AXI_RREADY M2_AXI_RRESP[0]
+ M2_AXI_RRESP[1] M2_AXI_RVALID M2_AXI_WDATA[0] M2_AXI_WDATA[10]
+ M2_AXI_WDATA[11] M2_AXI_WDATA[12] M2_AXI_WDATA[13] M2_AXI_WDATA[14]
+ M2_AXI_WDATA[15] M2_AXI_WDATA[16] M2_AXI_WDATA[17] M2_AXI_WDATA[18]
+ M2_AXI_WDATA[19] M2_AXI_WDATA[1] M2_AXI_WDATA[20] M2_AXI_WDATA[21]
+ M2_AXI_WDATA[22] M2_AXI_WDATA[23] M2_AXI_WDATA[24] M2_AXI_WDATA[25]
+ M2_AXI_WDATA[26] M2_AXI_WDATA[27] M2_AXI_WDATA[28] M2_AXI_WDATA[29]
+ M2_AXI_WDATA[2] M2_AXI_WDATA[30] M2_AXI_WDATA[31] M2_AXI_WDATA[3]
+ M2_AXI_WDATA[4] M2_AXI_WDATA[5] M2_AXI_WDATA[6] M2_AXI_WDATA[7]
+ M2_AXI_WDATA[8] M2_AXI_WDATA[9] M2_AXI_WID[0] M2_AXI_WID[1]
+ M2_AXI_WID[2] M2_AXI_WID[3] M2_AXI_WLAST M2_AXI_WREADY M2_AXI_WSTRB[0]
+ M2_AXI_WSTRB[1] M2_AXI_WSTRB[2] M2_AXI_WSTRB[3] M2_AXI_WVALID
+ S0_AXI_ARADDR[0] S0_AXI_ARADDR[10] S0_AXI_ARADDR[11] S0_AXI_ARADDR[12]
+ S0_AXI_ARADDR[13] S0_AXI_ARADDR[14] S0_AXI_ARADDR[15] S0_AXI_ARADDR[16]
+ S0_AXI_ARADDR[17] S0_AXI_ARADDR[18] S0_AXI_ARADDR[19] S0_AXI_ARADDR[1]
+ S0_AXI_ARADDR[20] S0_AXI_ARADDR[21] S0_AXI_ARADDR[22] S0_AXI_ARADDR[23]
+ S0_AXI_ARADDR[24] S0_AXI_ARADDR[25] S0_AXI_ARADDR[26] S0_AXI_ARADDR[27]
+ S0_AXI_ARADDR[28] S0_AXI_ARADDR[29] S0_AXI_ARADDR[2] S0_AXI_ARADDR[30]
+ S0_AXI_ARADDR[31] S0_AXI_ARADDR[3] S0_AXI_ARADDR[4] S0_AXI_ARADDR[5]
+ S0_AXI_ARADDR[6] S0_AXI_ARADDR[7] S0_AXI_ARADDR[8] S0_AXI_ARADDR[9]
+ S0_AXI_ARBURST[0] S0_AXI_ARBURST[1] S0_AXI_ARID[0] S0_AXI_ARID[1]
+ S0_AXI_ARID[2] S0_AXI_ARID[3] S0_AXI_ARID[4] S0_AXI_ARID[5]
+ S0_AXI_ARID[6] S0_AXI_ARID[7] S0_AXI_ARLEN[0] S0_AXI_ARLEN[1]
+ S0_AXI_ARLEN[2] S0_AXI_ARLEN[3] S0_AXI_ARLEN[4] S0_AXI_ARLEN[5]
+ S0_AXI_ARLEN[6] S0_AXI_ARLEN[7] S0_AXI_ARREADY S0_AXI_ARSIZE[0]
+ S0_AXI_ARSIZE[1] S0_AXI_ARSIZE[2] S0_AXI_ARVALID S0_AXI_AWADDR[0]
+ S0_AXI_AWADDR[10] S0_AXI_AWADDR[11] S0_AXI_AWADDR[12] S0_AXI_AWADDR[13]
+ S0_AXI_AWADDR[14] S0_AXI_AWADDR[15] S0_AXI_AWADDR[16] S0_AXI_AWADDR[17]
+ S0_AXI_AWADDR[18] S0_AXI_AWADDR[19] S0_AXI_AWADDR[1] S0_AXI_AWADDR[20]
+ S0_AXI_AWADDR[21] S0_AXI_AWADDR[22] S0_AXI_AWADDR[23] S0_AXI_AWADDR[24]
+ S0_AXI_AWADDR[25] S0_AXI_AWADDR[26] S0_AXI_AWADDR[27] S0_AXI_AWADDR[28]
+ S0_AXI_AWADDR[29] S0_AXI_AWADDR[2] S0_AXI_AWADDR[30] S0_AXI_AWADDR[31]
+ S0_AXI_AWADDR[3] S0_AXI_AWADDR[4] S0_AXI_AWADDR[5] S0_AXI_AWADDR[6]
+ S0_AXI_AWADDR[7] S0_AXI_AWADDR[8] S0_AXI_AWADDR[9] S0_AXI_AWBURST[0]
+ S0_AXI_AWBURST[1] S0_AXI_AWID[0] S0_AXI_AWID[1] S0_AXI_AWID[2]
+ S0_AXI_AWID[3] S0_AXI_AWID[4] S0_AXI_AWID[5] S0_AXI_AWID[6]
+ S0_AXI_AWID[7] S0_AXI_AWLEN[0] S0_AXI_AWLEN[1] S0_AXI_AWLEN[2]
+ S0_AXI_AWLEN[3] S0_AXI_AWLEN[4] S0_AXI_AWLEN[5] S0_AXI_AWLEN[6]
+ S0_AXI_AWLEN[7] S0_AXI_AWREADY S0_AXI_AWSIZE[0] S0_AXI_AWSIZE[1]
+ S0_AXI_AWSIZE[2] S0_AXI_AWVALID S0_AXI_BID[0] S0_AXI_BID[1]
+ S0_AXI_BID[2] S0_AXI_BID[3] S0_AXI_BID[4] S0_AXI_BID[5] S0_AXI_BID[6]
+ S0_AXI_BID[7] S0_AXI_BREADY S0_AXI_BRESP[0] S0_AXI_BRESP[1]
+ S0_AXI_BVALID S0_AXI_RDATA[0] S0_AXI_RDATA[10] S0_AXI_RDATA[11]
+ S0_AXI_RDATA[12] S0_AXI_RDATA[13] S0_AXI_RDATA[14] S0_AXI_RDATA[15]
+ S0_AXI_RDATA[16] S0_AXI_RDATA[17] S0_AXI_RDATA[18] S0_AXI_RDATA[19]
+ S0_AXI_RDATA[1] S0_AXI_RDATA[20] S0_AXI_RDATA[21] S0_AXI_RDATA[22]
+ S0_AXI_RDATA[23] S0_AXI_RDATA[24] S0_AXI_RDATA[25] S0_AXI_RDATA[26]
+ S0_AXI_RDATA[27] S0_AXI_RDATA[28] S0_AXI_RDATA[29] S0_AXI_RDATA[2]
+ S0_AXI_RDATA[30] S0_AXI_RDATA[31] S0_AXI_RDATA[3] S0_AXI_RDATA[4]
+ S0_AXI_RDATA[5] S0_AXI_RDATA[6] S0_AXI_RDATA[7] S0_AXI_RDATA[8]
+ S0_AXI_RDATA[9] S0_AXI_RID[0] S0_AXI_RID[1] S0_AXI_RID[2]
+ S0_AXI_RID[3] S0_AXI_RID[4] S0_AXI_RID[5] S0_AXI_RID[6] S0_AXI_RID[7]
+ S0_AXI_RLAST S0_AXI_RREADY S0_AXI_RRESP[0] S0_AXI_RRESP[1]
+ S0_AXI_RVALID S0_AXI_WDATA[0] S0_AXI_WDATA[10] S0_AXI_WDATA[11]
+ S0_AXI_WDATA[12] S0_AXI_WDATA[13] S0_AXI_WDATA[14] S0_AXI_WDATA[15]
+ S0_AXI_WDATA[16] S0_AXI_WDATA[17] S0_AXI_WDATA[18] S0_AXI_WDATA[19]
+ S0_AXI_WDATA[1] S0_AXI_WDATA[20] S0_AXI_WDATA[21] S0_AXI_WDATA[22]
+ S0_AXI_WDATA[23] S0_AXI_WDATA[24] S0_AXI_WDATA[25] S0_AXI_WDATA[26]
+ S0_AXI_WDATA[27] S0_AXI_WDATA[28] S0_AXI_WDATA[29] S0_AXI_WDATA[2]
+ S0_AXI_WDATA[30] S0_AXI_WDATA[31] S0_AXI_WDATA[3] S0_AXI_WDATA[4]
+ S0_AXI_WDATA[5] S0_AXI_WDATA[6] S0_AXI_WDATA[7] S0_AXI_WDATA[8]
+ S0_AXI_WDATA[9] S0_AXI_WID[0] S0_AXI_WID[1] S0_AXI_WID[2]
+ S0_AXI_WID[3] S0_AXI_WID[4] S0_AXI_WID[5] S0_AXI_WID[6] S0_AXI_WID[7]
+ S0_AXI_WLAST S0_AXI_WREADY S0_AXI_WSTRB[0] S0_AXI_WSTRB[1]
+ S0_AXI_WSTRB[2] S0_AXI_WSTRB[3] S0_AXI_WVALID S1_AXI_ARADDR[0]
+ S1_AXI_ARADDR[10] S1_AXI_ARADDR[11] S1_AXI_ARADDR[12] S1_AXI_ARADDR[13]
+ S1_AXI_ARADDR[14] S1_AXI_ARADDR[15] S1_AXI_ARADDR[16] S1_AXI_ARADDR[17]
+ S1_AXI_ARADDR[18] S1_AXI_ARADDR[19] S1_AXI_ARADDR[1] S1_AXI_ARADDR[20]
+ S1_AXI_ARADDR[21] S1_AXI_ARADDR[22] S1_AXI_ARADDR[23] S1_AXI_ARADDR[24]
+ S1_AXI_ARADDR[25] S1_AXI_ARADDR[26] S1_AXI_ARADDR[27] S1_AXI_ARADDR[28]
+ S1_AXI_ARADDR[29] S1_AXI_ARADDR[2] S1_AXI_ARADDR[30] S1_AXI_ARADDR[31]
+ S1_AXI_ARADDR[3] S1_AXI_ARADDR[4] S1_AXI_ARADDR[5] S1_AXI_ARADDR[6]
+ S1_AXI_ARADDR[7] S1_AXI_ARADDR[8] S1_AXI_ARADDR[9] S1_AXI_ARBURST[0]
+ S1_AXI_ARBURST[1] S1_AXI_ARID[0] S1_AXI_ARID[1] S1_AXI_ARID[2]
+ S1_AXI_ARID[3] S1_AXI_ARID[4] S1_AXI_ARID[5] S1_AXI_ARID[6]
+ S1_AXI_ARID[7] S1_AXI_ARLEN[0] S1_AXI_ARLEN[1] S1_AXI_ARLEN[2]
+ S1_AXI_ARLEN[3] S1_AXI_ARLEN[4] S1_AXI_ARLEN[5] S1_AXI_ARLEN[6]
+ S1_AXI_ARLEN[7] S1_AXI_ARREADY S1_AXI_ARSIZE[0] S1_AXI_ARSIZE[1]
+ S1_AXI_ARSIZE[2] S1_AXI_ARVALID S1_AXI_AWADDR[0] S1_AXI_AWADDR[10]
+ S1_AXI_AWADDR[11] S1_AXI_AWADDR[12] S1_AXI_AWADDR[13] S1_AXI_AWADDR[14]
+ S1_AXI_AWADDR[15] S1_AXI_AWADDR[16] S1_AXI_AWADDR[17] S1_AXI_AWADDR[18]
+ S1_AXI_AWADDR[19] S1_AXI_AWADDR[1] S1_AXI_AWADDR[20] S1_AXI_AWADDR[21]
+ S1_AXI_AWADDR[22] S1_AXI_AWADDR[23] S1_AXI_AWADDR[24] S1_AXI_AWADDR[25]
+ S1_AXI_AWADDR[26] S1_AXI_AWADDR[27] S1_AXI_AWADDR[28] S1_AXI_AWADDR[29]
+ S1_AXI_AWADDR[2] S1_AXI_AWADDR[30] S1_AXI_AWADDR[31] S1_AXI_AWADDR[3]
+ S1_AXI_AWADDR[4] S1_AXI_AWADDR[5] S1_AXI_AWADDR[6] S1_AXI_AWADDR[7]
+ S1_AXI_AWADDR[8] S1_AXI_AWADDR[9] S1_AXI_AWBURST[0] S1_AXI_AWBURST[1]
+ S1_AXI_AWID[0] S1_AXI_AWID[1] S1_AXI_AWID[2] S1_AXI_AWID[3]
+ S1_AXI_AWID[4] S1_AXI_AWID[5] S1_AXI_AWID[6] S1_AXI_AWID[7]
+ S1_AXI_AWLEN[0] S1_AXI_AWLEN[1] S1_AXI_AWLEN[2] S1_AXI_AWLEN[3]
+ S1_AXI_AWLEN[4] S1_AXI_AWLEN[5] S1_AXI_AWLEN[6] S1_AXI_AWLEN[7]
+ S1_AXI_AWREADY S1_AXI_AWSIZE[0] S1_AXI_AWSIZE[1] S1_AXI_AWSIZE[2]
+ S1_AXI_AWVALID S1_AXI_BID[0] S1_AXI_BID[1] S1_AXI_BID[2] S1_AXI_BID[3]
+ S1_AXI_BID[4] S1_AXI_BID[5] S1_AXI_BID[6] S1_AXI_BID[7] S1_AXI_BREADY
+ S1_AXI_BRESP[0] S1_AXI_BRESP[1] S1_AXI_BVALID S1_AXI_RDATA[0]
+ S1_AXI_RDATA[10] S1_AXI_RDATA[11] S1_AXI_RDATA[12] S1_AXI_RDATA[13]
+ S1_AXI_RDATA[14] S1_AXI_RDATA[15] S1_AXI_RDATA[16] S1_AXI_RDATA[17]
+ S1_AXI_RDATA[18] S1_AXI_RDATA[19] S1_AXI_RDATA[1] S1_AXI_RDATA[20]
+ S1_AXI_RDATA[21] S1_AXI_RDATA[22] S1_AXI_RDATA[23] S1_AXI_RDATA[24]
+ S1_AXI_RDATA[25] S1_AXI_RDATA[26] S1_AXI_RDATA[27] S1_AXI_RDATA[28]
+ S1_AXI_RDATA[29] S1_AXI_RDATA[2] S1_AXI_RDATA[30] S1_AXI_RDATA[31]
+ S1_AXI_RDATA[3] S1_AXI_RDATA[4] S1_AXI_RDATA[5] S1_AXI_RDATA[6]
+ S1_AXI_RDATA[7] S1_AXI_RDATA[8] S1_AXI_RDATA[9] S1_AXI_RID[0]
+ S1_AXI_RID[1] S1_AXI_RID[2] S1_AXI_RID[3] S1_AXI_RID[4] S1_AXI_RID[5]
+ S1_AXI_RID[6] S1_AXI_RID[7] S1_AXI_RLAST S1_AXI_RREADY S1_AXI_RRESP[0]
+ S1_AXI_RRESP[1] S1_AXI_RVALID S1_AXI_WDATA[0] S1_AXI_WDATA[10]
+ S1_AXI_WDATA[11] S1_AXI_WDATA[12] S1_AXI_WDATA[13] S1_AXI_WDATA[14]
+ S1_AXI_WDATA[15] S1_AXI_WDATA[16] S1_AXI_WDATA[17] S1_AXI_WDATA[18]
+ S1_AXI_WDATA[19] S1_AXI_WDATA[1] S1_AXI_WDATA[20] S1_AXI_WDATA[21]
+ S1_AXI_WDATA[22] S1_AXI_WDATA[23] S1_AXI_WDATA[24] S1_AXI_WDATA[25]
+ S1_AXI_WDATA[26] S1_AXI_WDATA[27] S1_AXI_WDATA[28] S1_AXI_WDATA[29]
+ S1_AXI_WDATA[2] S1_AXI_WDATA[30] S1_AXI_WDATA[31] S1_AXI_WDATA[3]
+ S1_AXI_WDATA[4] S1_AXI_WDATA[5] S1_AXI_WDATA[6] S1_AXI_WDATA[7]
+ S1_AXI_WDATA[8] S1_AXI_WDATA[9] S1_AXI_WID[0] S1_AXI_WID[1]
+ S1_AXI_WID[2] S1_AXI_WID[3] S1_AXI_WID[4] S1_AXI_WID[5] S1_AXI_WID[6]
+ S1_AXI_WID[7] S1_AXI_WLAST S1_AXI_WREADY S1_AXI_WSTRB[0] S1_AXI_WSTRB[1]
+ S1_AXI_WSTRB[2] S1_AXI_WSTRB[3] S1_AXI_WVALID S2_AXI_ARADDR[0]
+ S2_AXI_ARADDR[10] S2_AXI_ARADDR[11] S2_AXI_ARADDR[12] S2_AXI_ARADDR[13]
+ S2_AXI_ARADDR[14] S2_AXI_ARADDR[15] S2_AXI_ARADDR[16] S2_AXI_ARADDR[17]
+ S2_AXI_ARADDR[18] S2_AXI_ARADDR[19] S2_AXI_ARADDR[1] S2_AXI_ARADDR[20]
+ S2_AXI_ARADDR[21] S2_AXI_ARADDR[22] S2_AXI_ARADDR[23] S2_AXI_ARADDR[24]
+ S2_AXI_ARADDR[25] S2_AXI_ARADDR[26] S2_AXI_ARADDR[27] S2_AXI_ARADDR[28]
+ S2_AXI_ARADDR[29] S2_AXI_ARADDR[2] S2_AXI_ARADDR[30] S2_AXI_ARADDR[31]
+ S2_AXI_ARADDR[3] S2_AXI_ARADDR[4] S2_AXI_ARADDR[5] S2_AXI_ARADDR[6]
+ S2_AXI_ARADDR[7] S2_AXI_ARADDR[8] S2_AXI_ARADDR[9] S2_AXI_ARBURST[0]
+ S2_AXI_ARBURST[1] S2_AXI_ARID[0] S2_AXI_ARID[1] S2_AXI_ARID[2]
+ S2_AXI_ARID[3] S2_AXI_ARID[4] S2_AXI_ARID[5] S2_AXI_ARID[6]
+ S2_AXI_ARID[7] S2_AXI_ARLEN[0] S2_AXI_ARLEN[1] S2_AXI_ARLEN[2]
+ S2_AXI_ARLEN[3] S2_AXI_ARLEN[4] S2_AXI_ARLEN[5] S2_AXI_ARLEN[6]
+ S2_AXI_ARLEN[7] S2_AXI_ARREADY S2_AXI_ARSIZE[0] S2_AXI_ARSIZE[1]
+ S2_AXI_ARSIZE[2] S2_AXI_ARVALID S2_AXI_AWADDR[0] S2_AXI_AWADDR[10]
+ S2_AXI_AWADDR[11] S2_AXI_AWADDR[12] S2_AXI_AWADDR[13] S2_AXI_AWADDR[14]
+ S2_AXI_AWADDR[15] S2_AXI_AWADDR[16] S2_AXI_AWADDR[17] S2_AXI_AWADDR[18]
+ S2_AXI_AWADDR[19] S2_AXI_AWADDR[1] S2_AXI_AWADDR[20] S2_AXI_AWADDR[21]
+ S2_AXI_AWADDR[22] S2_AXI_AWADDR[23] S2_AXI_AWADDR[24] S2_AXI_AWADDR[25]
+ S2_AXI_AWADDR[26] S2_AXI_AWADDR[27] S2_AXI_AWADDR[28] S2_AXI_AWADDR[29]
+ S2_AXI_AWADDR[2] S2_AXI_AWADDR[30] S2_AXI_AWADDR[31] S2_AXI_AWADDR[3]
+ S2_AXI_AWADDR[4] S2_AXI_AWADDR[5] S2_AXI_AWADDR[6] S2_AXI_AWADDR[7]
+ S2_AXI_AWADDR[8] S2_AXI_AWADDR[9] S2_AXI_AWBURST[0] S2_AXI_AWBURST[1]
+ S2_AXI_AWID[0] S2_AXI_AWID[1] S2_AXI_AWID[2] S2_AXI_AWID[3]
+ S2_AXI_AWID[4] S2_AXI_AWID[5] S2_AXI_AWID[6] S2_AXI_AWID[7]
+ S2_AXI_AWLEN[0] S2_AXI_AWLEN[1] S2_AXI_AWLEN[2] S2_AXI_AWLEN[3]
+ S2_AXI_AWLEN[4] S2_AXI_AWLEN[5] S2_AXI_AWLEN[6] S2_AXI_AWLEN[7]
+ S2_AXI_AWREADY S2_AXI_AWSIZE[0] S2_AXI_AWSIZE[1] S2_AXI_AWSIZE[2]
+ S2_AXI_AWVALID S2_AXI_BID[0] S2_AXI_BID[1] S2_AXI_BID[2] S2_AXI_BID[3]
+ S2_AXI_BID[4] S2_AXI_BID[5] S2_AXI_BID[6] S2_AXI_BID[7] S2_AXI_BREADY
+ S2_AXI_BRESP[0] S2_AXI_BRESP[1] S2_AXI_BVALID S2_AXI_RDATA[0]
+ S2_AXI_RDATA[10] S2_AXI_RDATA[11] S2_AXI_RDATA[12] S2_AXI_RDATA[13]
+ S2_AXI_RDATA[14] S2_AXI_RDATA[15] S2_AXI_RDATA[16] S2_AXI_RDATA[17]
+ S2_AXI_RDATA[18] S2_AXI_RDATA[19] S2_AXI_RDATA[1] S2_AXI_RDATA[20]
+ S2_AXI_RDATA[21] S2_AXI_RDATA[22] S2_AXI_RDATA[23] S2_AXI_RDATA[24]
+ S2_AXI_RDATA[25] S2_AXI_RDATA[26] S2_AXI_RDATA[27] S2_AXI_RDATA[28]
+ S2_AXI_RDATA[29] S2_AXI_RDATA[2] S2_AXI_RDATA[30] S2_AXI_RDATA[31]
+ S2_AXI_RDATA[3] S2_AXI_RDATA[4] S2_AXI_RDATA[5] S2_AXI_RDATA[6]
+ S2_AXI_RDATA[7] S2_AXI_RDATA[8] S2_AXI_RDATA[9] S2_AXI_RID[0]
+ S2_AXI_RID[1] S2_AXI_RID[2] S2_AXI_RID[3] S2_AXI_RID[4] S2_AXI_RID[5]
+ S2_AXI_RID[6] S2_AXI_RID[7] S2_AXI_RLAST S2_AXI_RREADY S2_AXI_RRESP[0]
+ S2_AXI_RRESP[1] S2_AXI_RVALID S2_AXI_WDATA[0] S2_AXI_WDATA[10]
+ S2_AXI_WDATA[11] S2_AXI_WDATA[12] S2_AXI_WDATA[13] S2_AXI_WDATA[14]
+ S2_AXI_WDATA[15] S2_AXI_WDATA[16] S2_AXI_WDATA[17] S2_AXI_WDATA[18]
+ S2_AXI_WDATA[19] S2_AXI_WDATA[1] S2_AXI_WDATA[20] S2_AXI_WDATA[21]
+ S2_AXI_WDATA[22] S2_AXI_WDATA[23] S2_AXI_WDATA[24] S2_AXI_WDATA[25]
+ S2_AXI_WDATA[26] S2_AXI_WDATA[27] S2_AXI_WDATA[28] S2_AXI_WDATA[29]
+ S2_AXI_WDATA[2] S2_AXI_WDATA[30] S2_AXI_WDATA[31] S2_AXI_WDATA[3]
+ S2_AXI_WDATA[4] S2_AXI_WDATA[5] S2_AXI_WDATA[6] S2_AXI_WDATA[7]
+ S2_AXI_WDATA[8] S2_AXI_WDATA[9] S2_AXI_WID[0] S2_AXI_WID[1]
+ S2_AXI_WID[2] S2_AXI_WID[3] S2_AXI_WID[4] S2_AXI_WID[5] S2_AXI_WID[6]
+ S2_AXI_WID[7] S2_AXI_WLAST S2_AXI_WREADY S2_AXI_WSTRB[0] S2_AXI_WSTRB[1]
+ S2_AXI_WSTRB[2] S2_AXI_WSTRB[3] S2_AXI_WVALID paddr[0] paddr[10]
+ paddr[11] paddr[12] paddr[13] paddr[14] paddr[15] paddr[16]
+ paddr[17] paddr[18] paddr[19] paddr[1] paddr[20] paddr[21]
+ paddr[22] paddr[23] paddr[24] paddr[25] paddr[26] paddr[27]
+ paddr[28] paddr[29] paddr[2] paddr[30] paddr[31] paddr[3]
+ paddr[4] paddr[5] paddr[6] paddr[7] paddr[8] paddr[9] penable
+ prdata[0] prdata[10] prdata[11] prdata[12] prdata[13] prdata[14]
+ prdata[15] prdata[16] prdata[17] prdata[18] prdata[19] prdata[1]
+ prdata[20] prdata[21] prdata[22] prdata[23] prdata[24] prdata[25]
+ prdata[26] prdata[27] prdata[28] prdata[29] prdata[2] prdata[30]
+ prdata[31] prdata[3] prdata[4] prdata[5] prdata[6] prdata[7]
+ prdata[8] prdata[9] psel pwdata[0] pwdata[10] pwdata[11] pwdata[12]
+ pwdata[13] pwdata[14] pwdata[15] pwdata[16] pwdata[17] pwdata[18]
+ pwdata[19] pwdata[1] pwdata[20] pwdata[21] pwdata[22] pwdata[23]
+ pwdata[24] pwdata[25] pwdata[26] pwdata[27] pwdata[28] pwdata[29]
+ pwdata[2] pwdata[30] pwdata[31] pwdata[3] pwdata[4] pwdata[5]
+ pwdata[6] pwdata[7] pwdata[8] pwdata[9] pwrite
Xoutput791 net791 S0_AXI_ARADDR[13] _unconnected_0 _unconnected_1
+ BUF_X1
Xoutput790 net790 S0_AXI_ARADDR[12] _unconnected_2 _unconnected_3
+ BUF_X1
Xoutput789 net789 S0_AXI_ARADDR[11] _unconnected_4 _unconnected_5
+ BUF_X1
Xoutput788 net788 S0_AXI_ARADDR[10] _unconnected_6 _unconnected_7
+ BUF_X1
Xoutput787 net787 S0_AXI_ARADDR[0] _unconnected_8 _unconnected_9
+ BUF_X1
Xoutput786 net786 M2_AXI_WREADY _unconnected_10 _unconnected_11
+ BUF_X1
Xoutput785 net785 M2_AXI_RVALID _unconnected_12 _unconnected_13
+ BUF_X1
Xoutput784 net784 M2_AXI_RRESP[1] _unconnected_14 _unconnected_15
+ BUF_X1
X_21142_ u_fifo_aw_m0.Mem\[0\]\[27\] u_fifo_aw_m0.Mem\[2\]\[27\]
+ _00013_ _07217_ VDD VSS MUX2_X1
X_21143_ u_fifo_aw_m0.Mem\[1\]\[27\] u_fifo_aw_m0.Mem\[3\]\[27\]
+ _00013_ _07218_ VDD VSS MUX2_X1
Xoutput783 net783 M2_AXI_RRESP[0] _unconnected_16 _unconnected_17
+ BUF_X1
Xoutput782 net782 M2_AXI_RLAST _unconnected_18 _unconnected_19
+ BUF_X1
X_21146_ _07217_ _07218_ net1407 _07221_ VDD VSS MUX2_X2
X_21147_ u_fifo_aw_m0.Mem\[0\]\[36\] u_fifo_aw_m0.Mem\[2\]\[36\]
+ net1405 _07222_ VDD VSS MUX2_X1
X_21148_ u_fifo_aw_m0.Mem\[1\]\[36\] u_fifo_aw_m0.Mem\[3\]\[36\]
+ net1405 _07223_ VDD VSS MUX2_X1
X_21149_ _07222_ _07223_ net1407 _07224_ VDD VSS MUX2_X2
Xoutput781 net781 M2_AXI_RID[3] _unconnected_20 _unconnected_21
+ BUF_X1
X_21151_ u_fifo_aw_m0.Mem\[0\]\[34\] u_fifo_aw_m0.Mem\[2\]\[34\]
+ net1405 _07226_ VDD VSS MUX2_X1
X_21152_ u_fifo_aw_m0.Mem\[1\]\[34\] u_fifo_aw_m0.Mem\[3\]\[34\]
+ net1405 _07227_ VDD VSS MUX2_X1
Xoutput780 net780 M2_AXI_RID[2] _unconnected_22 _unconnected_23
+ BUF_X1
X_21154_ _07226_ _07227_ net1407 _07229_ VDD VSS MUX2_X2
Xoutput779 net779 M2_AXI_RID[1] _unconnected_24 _unconnected_25
+ BUF_X1
X_21156_ u_fifo_aw_m0.Mem\[0\]\[30\] u_fifo_aw_m0.Mem\[2\]\[30\]
+ net1405 _07231_ VDD VSS MUX2_X1
X_21157_ u_fifo_aw_m0.Mem\[1\]\[30\] u_fifo_aw_m0.Mem\[3\]\[30\]
+ net1405 _07232_ VDD VSS MUX2_X1
X_21158_ _07231_ _07232_ net1407 _07233_ VDD VSS MUX2_X2
X_21159_ u_fifo_aw_m0.Mem\[0\]\[32\] u_fifo_aw_m0.Mem\[2\]\[32\]
+ net1405 _07234_ VDD VSS MUX2_X1
X_21160_ u_fifo_aw_m0.Mem\[1\]\[32\] u_fifo_aw_m0.Mem\[3\]\[32\]
+ net1405 _07235_ VDD VSS MUX2_X1
X_21161_ _07234_ _07235_ net1407 _07236_ VDD VSS MUX2_X2
X_21162_ _07224_ _07229_ _07233_ _07236_ _07237_ VDD VSS NOR4_X4
X_21163_ u_fifo_aw_m0.Mem\[0\]\[43\] u_fifo_aw_m0.Mem\[2\]\[43\]
+ net1405 _07238_ VDD VSS MUX2_X1
X_21164_ u_fifo_aw_m0.Mem\[1\]\[43\] u_fifo_aw_m0.Mem\[3\]\[43\]
+ net1405 _07239_ VDD VSS MUX2_X1
X_21165_ _07238_ _07239_ net1407 _07240_ VDD VSS MUX2_X2
X_21166_ u_fifo_aw_m0.Mem\[0\]\[28\] u_fifo_aw_m0.Mem\[2\]\[28\]
+ net1405 _07241_ VDD VSS MUX2_X1
X_21167_ u_fifo_aw_m0.Mem\[1\]\[28\] u_fifo_aw_m0.Mem\[3\]\[28\]
+ net1405 _07242_ VDD VSS MUX2_X1
X_21168_ _07241_ _07242_ net1407 _07243_ VDD VSS MUX2_X2
X_21169_ u_fifo_aw_m0.Mem\[0\]\[42\] u_fifo_aw_m0.Mem\[2\]\[42\]
+ net1405 _07244_ VDD VSS MUX2_X1
X_21170_ u_fifo_aw_m0.Mem\[1\]\[42\] u_fifo_aw_m0.Mem\[3\]\[42\]
+ net1405 _07245_ VDD VSS MUX2_X1
X_21171_ _07244_ _07245_ net1407 _07246_ VDD VSS MUX2_X2
X_21172_ u_fifo_aw_m0.Mem\[0\]\[33\] u_fifo_aw_m0.Mem\[2\]\[33\]
+ net1405 _07247_ VDD VSS MUX2_X1
X_21173_ u_fifo_aw_m0.Mem\[1\]\[33\] u_fifo_aw_m0.Mem\[3\]\[33\]
+ net1405 _07248_ VDD VSS MUX2_X1
X_21174_ _07247_ _07248_ net1407 _07249_ VDD VSS MUX2_X2
X_21175_ _07240_ _07243_ _07246_ _07249_ _07250_ VDD VSS NOR4_X4
X_21176_ u_fifo_aw_m0.Mem\[0\]\[39\] u_fifo_aw_m0.Mem\[2\]\[39\]
+ net1406 _07251_ VDD VSS MUX2_X1
X_21177_ u_fifo_aw_m0.Mem\[1\]\[39\] u_fifo_aw_m0.Mem\[3\]\[39\]
+ net1406 _07252_ VDD VSS MUX2_X1
X_21178_ _07251_ _07252_ net1407 _07253_ VDD VSS MUX2_X2
X_21179_ u_fifo_aw_m0.Mem\[0\]\[37\] u_fifo_aw_m0.Mem\[2\]\[37\]
+ net1405 _07254_ VDD VSS MUX2_X1
X_21180_ u_fifo_aw_m0.Mem\[1\]\[37\] u_fifo_aw_m0.Mem\[3\]\[37\]
+ net1405 _07255_ VDD VSS MUX2_X1
X_21181_ _07254_ _07255_ net1407 _07256_ VDD VSS MUX2_X2
X_21182_ _07253_ _07256_ _07257_ VDD VSS NOR2_X2
X_21183_ u_fifo_aw_m0.Mem\[0\]\[25\] u_fifo_aw_m0.Mem\[2\]\[25\]
+ net1405 _07258_ VDD VSS MUX2_X1
X_21184_ u_fifo_aw_m0.Mem\[1\]\[25\] u_fifo_aw_m0.Mem\[3\]\[25\]
+ net1405 _07259_ VDD VSS MUX2_X1
X_21185_ _07258_ _07259_ net1407 _07260_ VDD VSS MUX2_X2
X_21186_ u_fifo_aw_m0.Mem\[0\]\[44\] u_fifo_aw_m0.Mem\[2\]\[44\]
+ net1405 _07261_ VDD VSS MUX2_X1
X_21187_ u_fifo_aw_m0.Mem\[1\]\[44\] u_fifo_aw_m0.Mem\[3\]\[44\]
+ net1405 _07262_ VDD VSS MUX2_X1
X_21188_ _07261_ _07262_ net1407 _07263_ VDD VSS MUX2_X2
X_21189_ u_fifo_aw_m0.Mem\[0\]\[35\] u_fifo_aw_m0.Mem\[2\]\[35\]
+ net1405 _07264_ VDD VSS MUX2_X1
X_21190_ u_fifo_aw_m0.Mem\[1\]\[35\] u_fifo_aw_m0.Mem\[3\]\[35\]
+ net1405 _07265_ VDD VSS MUX2_X1
X_21191_ _07264_ _07265_ net1407 _07266_ VDD VSS MUX2_X2
X_21192_ u_fifo_aw_m0.Mem\[0\]\[31\] u_fifo_aw_m0.Mem\[2\]\[31\]
+ net1405 _07267_ VDD VSS MUX2_X1
X_21193_ u_fifo_aw_m0.Mem\[1\]\[31\] u_fifo_aw_m0.Mem\[3\]\[31\]
+ net1405 _07268_ VDD VSS MUX2_X1
X_21194_ _07267_ _07268_ net1407 _07269_ VDD VSS MUX2_X2
X_21195_ _07260_ _07263_ _07266_ _07269_ _07270_ VDD VSS NOR4_X4
X_21196_ _07237_ _07250_ _07257_ _07270_ _07271_ VDD VSS AND4_X2
X_21197_ u_fifo_aw_m0.Mem\[0\]\[29\] u_fifo_aw_m0.Mem\[2\]\[29\]
+ net1405 _07272_ VDD VSS MUX2_X1
X_21198_ u_fifo_aw_m0.Mem\[1\]\[29\] u_fifo_aw_m0.Mem\[3\]\[29\]
+ net1405 _07273_ VDD VSS MUX2_X1
X_21199_ _07272_ _07273_ net1407 _07274_ VDD VSS MUX2_X2
X_21200_ u_fifo_aw_m0.Mem\[0\]\[41\] u_fifo_aw_m0.Mem\[2\]\[41\]
+ net1406 _07275_ VDD VSS MUX2_X1
X_21201_ u_fifo_aw_m0.Mem\[1\]\[41\] u_fifo_aw_m0.Mem\[3\]\[41\]
+ net1406 _07276_ VDD VSS MUX2_X1
X_21202_ _07275_ _07276_ net1407 _07277_ VDD VSS MUX2_X2
X_21203_ u_fifo_aw_m0.Mem\[0\]\[38\] u_fifo_aw_m0.Mem\[2\]\[38\]
+ net1405 _07278_ VDD VSS MUX2_X1
X_21204_ u_fifo_aw_m0.Mem\[1\]\[38\] u_fifo_aw_m0.Mem\[3\]\[38\]
+ net1405 _07279_ VDD VSS MUX2_X1
X_21205_ _07278_ _07279_ net1407 _07280_ VDD VSS MUX2_X2
X_21206_ u_fifo_aw_m0.Mem\[0\]\[40\] u_fifo_aw_m0.Mem\[2\]\[40\]
+ net1405 _07281_ VDD VSS MUX2_X1
X_21207_ u_fifo_aw_m0.Mem\[1\]\[40\] u_fifo_aw_m0.Mem\[3\]\[40\]
+ net1405 _07282_ VDD VSS MUX2_X1
X_21208_ _07281_ _07282_ net1407 _07283_ VDD VSS MUX2_X2
X_21209_ _07274_ _07277_ _07280_ _07283_ _07284_ VDD VSS NOR4_X4
X_21210_ u_fifo_aw_m0.Mem\[0\]\[26\] u_fifo_aw_m0.Mem\[2\]\[26\]
+ _00013_ _07285_ VDD VSS MUX2_X1
X_21211_ u_fifo_aw_m0.Mem\[1\]\[26\] u_fifo_aw_m0.Mem\[3\]\[26\]
+ _00013_ _07286_ VDD VSS MUX2_X1
X_21212_ _07285_ _07286_ net1407 _07287_ VDD VSS MUX2_X2
Xoutput778 net778 M2_AXI_RID[0] _unconnected_26 _unconnected_27
+ BUF_X1
Xoutput777 net777 M2_AXI_RDATA[9] _unconnected_28 _unconnected_29
+ BUF_X1
X_21215_ u_fifo_aw_m0.fifo_tail\[0\] u_fifo_aw_m0.fifo_head\[0\]
+ _07290_ VDD VSS XOR2_X2
X_21216_ u_fifo_aw_m0.fifo_tail\[2\] u_fifo_aw_m0.fifo_head\[2\]
+ _07291_ VDD VSS XOR2_X2
Xoutput776 net776 M2_AXI_RDATA[8] _unconnected_30 _unconnected_31
+ BUF_X1
X_21218_ u_fifo_aw_m0.fifo_tail\[1\] u_fifo_aw_m0.fifo_head\[1\]
+ _07293_ VDD VSS XOR2_X2
X_21219_ _07290_ _07291_ _07293_ _07294_ VDD VSS NOR3_X4
X_21220_ _07287_ _07294_ _07295_ VDD VSS NOR2_X1
X_21221_ _07284_ _07295_ _07296_ VDD VSS AND2_X1
X_21222_ _07221_ _07271_ _07296_ _07297_ VDD VSS NAND3_X2
Xoutput775 net775 M2_AXI_RDATA[7] _unconnected_32 _unconnected_33
+ BUF_X1
X_21224_ u_fifo_aw_m1.fifo_tail\[0\] u_fifo_aw_m1.fifo_head\[0\]
+ _07299_ VDD VSS XOR2_X2
X_21225_ u_fifo_aw_m1.fifo_tail\[2\] u_fifo_aw_m1.fifo_head\[2\]
+ _07300_ VDD VSS XOR2_X2
Xoutput774 net774 M2_AXI_RDATA[6] _unconnected_34 _unconnected_35
+ BUF_X1
X_21227_ u_fifo_aw_m1.fifo_tail\[1\] u_fifo_aw_m1.fifo_head\[1\]
+ _07302_ VDD VSS XOR2_X2
X_21228_ _07299_ _07300_ _07302_ _07303_ VDD VSS NOR3_X4
Xoutput773 net773 M2_AXI_RDATA[5] _unconnected_36 _unconnected_37
+ BUF_X1
Xoutput772 net772 M2_AXI_RDATA[4] _unconnected_38 _unconnected_39
+ BUF_X1
Xoutput771 net771 M2_AXI_RDATA[3] _unconnected_40 _unconnected_41
+ BUF_X1
X_21232_ u_fifo_aw_m1.Mem\[0\]\[27\] u_fifo_aw_m1.Mem\[2\]\[27\]
+ _00015_ _07307_ VDD VSS MUX2_X1