$ CDL Netlist generated by OpenROAD
 .include "/home/chf/OpenROAD-flow-scripts/flow/results/PDK/nangate45/cdl/NangateOpenCellLibrary.cdl"
*.BUSDELIMITER [

.SUBCKT axi_interconnect AXI_CLK AXI_RSTn M0_AXI_ARADDR[0]
+ M0_AXI_ARADDR[10] M0_AXI_ARADDR[11] M0_AXI_ARADDR[12] M0_AXI_ARADDR[13]
+ M0_AXI_ARADDR[14] M0_AXI_ARADDR[15] M0_AXI_ARADDR[16] M0_AXI_ARADDR[17]
+ M0_AXI_ARADDR[18] M0_AXI_ARADDR[19] M0_AXI_ARADDR[1] M0_AXI_ARADDR[20]
+ M0_AXI_ARADDR[21] M0_AXI_ARADDR[22] M0_AXI_ARADDR[23] M0_AXI_ARADDR[24]
+ M0_AXI_ARADDR[25] M0_AXI_ARADDR[26] M0_AXI_ARADDR[27] M0_AXI_ARADDR[28]
+ M0_AXI_ARADDR[29] M0_AXI_ARADDR[2] M0_AXI_ARADDR[30] M0_AXI_ARADDR[31]
+ M0_AXI_ARADDR[3] M0_AXI_ARADDR[4] M0_AXI_ARADDR[5] M0_AXI_ARADDR[6]
+ M0_AXI_ARADDR[7] M0_AXI_ARADDR[8] M0_AXI_ARADDR[9] M0_AXI_ARBURST[0]
+ M0_AXI_ARBURST[1] M0_AXI_ARID[0] M0_AXI_ARID[1] M0_AXI_ARID[2]
+ M0_AXI_ARID[3] M0_AXI_ARLEN[0] M0_AXI_ARLEN[1] M0_AXI_ARLEN[2]
+ M0_AXI_ARLEN[3] M0_AXI_ARLEN[4] M0_AXI_ARLEN[5] M0_AXI_ARLEN[6]
+ M0_AXI_ARLEN[7] M0_AXI_ARREADY M0_AXI_ARSIZE[0] M0_AXI_ARSIZE[1]
+ M0_AXI_ARSIZE[2] M0_AXI_ARVALID M0_AXI_AWADDR[0] M0_AXI_AWADDR[10]
+ M0_AXI_AWADDR[11] M0_AXI_AWADDR[12] M0_AXI_AWADDR[13] M0_AXI_AWADDR[14]
+ M0_AXI_AWADDR[15] M0_AXI_AWADDR[16] M0_AXI_AWADDR[17] M0_AXI_AWADDR[18]
+ M0_AXI_AWADDR[19] M0_AXI_AWADDR[1] M0_AXI_AWADDR[20] M0_AXI_AWADDR[21]
+ M0_AXI_AWADDR[22] M0_AXI_AWADDR[23] M0_AXI_AWADDR[24] M0_AXI_AWADDR[25]
+ M0_AXI_AWADDR[26] M0_AXI_AWADDR[27] M0_AXI_AWADDR[28] M0_AXI_AWADDR[29]
+ M0_AXI_AWADDR[2] M0_AXI_AWADDR[30] M0_AXI_AWADDR[31] M0_AXI_AWADDR[3]
+ M0_AXI_AWADDR[4] M0_AXI_AWADDR[5] M0_AXI_AWADDR[6] M0_AXI_AWADDR[7]
+ M0_AXI_AWADDR[8] M0_AXI_AWADDR[9] M0_AXI_AWBURST[0] M0_AXI_AWBURST[1]
+ M0_AXI_AWID[0] M0_AXI_AWID[1] M0_AXI_AWID[2] M0_AXI_AWID[3]
+ M0_AXI_AWLEN[0] M0_AXI_AWLEN[1] M0_AXI_AWLEN[2] M0_AXI_AWLEN[3]
+ M0_AXI_AWLEN[4] M0_AXI_AWLEN[5] M0_AXI_AWLEN[6] M0_AXI_AWLEN[7]
+ M0_AXI_AWREADY M0_AXI_AWSIZE[0] M0_AXI_AWSIZE[1] M0_AXI_AWSIZE[2]
+ M0_AXI_AWVALID M0_AXI_BID[0] M0_AXI_BID[1] M0_AXI_BID[2] M0_AXI_BID[3]
+ M0_AXI_BREADY M0_AXI_BRESP[0] M0_AXI_BRESP[1] M0_AXI_BVALID
+ M0_AXI_RDATA[0] M0_AXI_RDATA[10] M0_AXI_RDATA[11] M0_AXI_RDATA[12]
+ M0_AXI_RDATA[13] M0_AXI_RDATA[14] M0_AXI_RDATA[15] M0_AXI_RDATA[16]
+ M0_AXI_RDATA[17] M0_AXI_RDATA[18] M0_AXI_RDATA[19] M0_AXI_RDATA[1]
+ M0_AXI_RDATA[20] M0_AXI_RDATA[21] M0_AXI_RDATA[22] M0_AXI_RDATA[23]
+ M0_AXI_RDATA[24] M0_AXI_RDATA[25] M0_AXI_RDATA[26] M0_AXI_RDATA[27]
+ M0_AXI_RDATA[28] M0_AXI_RDATA[29] M0_AXI_RDATA[2] M0_AXI_RDATA[30]
+ M0_AXI_RDATA[31] M0_AXI_RDATA[3] M0_AXI_RDATA[4] M0_AXI_RDATA[5]
+ M0_AXI_RDATA[6] M0_AXI_RDATA[7] M0_AXI_RDATA[8] M0_AXI_RDATA[9]
+ M0_AXI_RID[0] M0_AXI_RID[1] M0_AXI_RID[2] M0_AXI_RID[3] M0_AXI_RLAST
+ M0_AXI_RREADY M0_AXI_RRESP[0] M0_AXI_RRESP[1] M0_AXI_RVALID
+ M0_AXI_WDATA[0] M0_AXI_WDATA[10] M0_AXI_WDATA[11] M0_AXI_WDATA[12]
+ M0_AXI_WDATA[13] M0_AXI_WDATA[14] M0_AXI_WDATA[15] M0_AXI_WDATA[16]
+ M0_AXI_WDATA[17] M0_AXI_WDATA[18] M0_AXI_WDATA[19] M0_AXI_WDATA[1]
+ M0_AXI_WDATA[20] M0_AXI_WDATA[21] M0_AXI_WDATA[22] M0_AXI_WDATA[23]
+ M0_AXI_WDATA[24] M0_AXI_WDATA[25] M0_AXI_WDATA[26] M0_AXI_WDATA[27]
+ M0_AXI_WDATA[28] M0_AXI_WDATA[29] M0_AXI_WDATA[2] M0_AXI_WDATA[30]
+ M0_AXI_WDATA[31] M0_AXI_WDATA[3] M0_AXI_WDATA[4] M0_AXI_WDATA[5]
+ M0_AXI_WDATA[6] M0_AXI_WDATA[7] M0_AXI_WDATA[8] M0_AXI_WDATA[9]
+ M0_AXI_WID[0] M0_AXI_WID[1] M0_AXI_WID[2] M0_AXI_WID[3] M0_AXI_WLAST
+ M0_AXI_WREADY M0_AXI_WSTRB[0] M0_AXI_WSTRB[1] M0_AXI_WSTRB[2]
+ M0_AXI_WSTRB[3] M0_AXI_WVALID M1_AXI_ARADDR[0] M1_AXI_ARADDR[10]
+ M1_AXI_ARADDR[11] M1_AXI_ARADDR[12] M1_AXI_ARADDR[13] M1_AXI_ARADDR[14]
+ M1_AXI_ARADDR[15] M1_AXI_ARADDR[16] M1_AXI_ARADDR[17] M1_AXI_ARADDR[18]
+ M1_AXI_ARADDR[19] M1_AXI_ARADDR[1] M1_AXI_ARADDR[20] M1_AXI_ARADDR[21]
+ M1_AXI_ARADDR[22] M1_AXI_ARADDR[23] M1_AXI_ARADDR[24] M1_AXI_ARADDR[25]
+ M1_AXI_ARADDR[26] M1_AXI_ARADDR[27] M1_AXI_ARADDR[28] M1_AXI_ARADDR[29]
+ M1_AXI_ARADDR[2] M1_AXI_ARADDR[30] M1_AXI_ARADDR[31] M1_AXI_ARADDR[3]
+ M1_AXI_ARADDR[4] M1_AXI_ARADDR[5] M1_AXI_ARADDR[6] M1_AXI_ARADDR[7]
+ M1_AXI_ARADDR[8] M1_AXI_ARADDR[9] M1_AXI_ARBURST[0] M1_AXI_ARBURST[1]
+ M1_AXI_ARID[0] M1_AXI_ARID[1] M1_AXI_ARID[2] M1_AXI_ARID[3]
+ M1_AXI_ARLEN[0] M1_AXI_ARLEN[1] M1_AXI_ARLEN[2] M1_AXI_ARLEN[3]
+ M1_AXI_ARLEN[4] M1_AXI_ARLEN[5] M1_AXI_ARLEN[6] M1_AXI_ARLEN[7]
+ M1_AXI_ARREADY M1_AXI_ARSIZE[0] M1_AXI_ARSIZE[1] M1_AXI_ARSIZE[2]
+ M1_AXI_ARVALID M1_AXI_AWADDR[0] M1_AXI_AWADDR[10] M1_AXI_AWADDR[11]
+ M1_AXI_AWADDR[12] M1_AXI_AWADDR[13] M1_AXI_AWADDR[14] M1_AXI_AWADDR[15]
+ M1_AXI_AWADDR[16] M1_AXI_AWADDR[17] M1_AXI_AWADDR[18] M1_AXI_AWADDR[19]
+ M1_AXI_AWADDR[1] M1_AXI_AWADDR[20] M1_AXI_AWADDR[21] M1_AXI_AWADDR[22]
+ M1_AXI_AWADDR[23] M1_AXI_AWADDR[24] M1_AXI_AWADDR[25] M1_AXI_AWADDR[26]
+ M1_AXI_AWADDR[27] M1_AXI_AWADDR[28] M1_AXI_AWADDR[29] M1_AXI_AWADDR[2]
+ M1_AXI_AWADDR[30] M1_AXI_AWADDR[31] M1_AXI_AWADDR[3] M1_AXI_AWADDR[4]
+ M1_AXI_AWADDR[5] M1_AXI_AWADDR[6] M1_AXI_AWADDR[7] M1_AXI_AWADDR[8]
+ M1_AXI_AWADDR[9] M1_AXI_AWBURST[0] M1_AXI_AWBURST[1] M1_AXI_AWID[0]
+ M1_AXI_AWID[1] M1_AXI_AWID[2] M1_AXI_AWID[3] M1_AXI_AWLEN[0]
+ M1_AXI_AWLEN[1] M1_AXI_AWLEN[2] M1_AXI_AWLEN[3] M1_AXI_AWLEN[4]
+ M1_AXI_AWLEN[5] M1_AXI_AWLEN[6] M1_AXI_AWLEN[7] M1_AXI_AWREADY
+ M1_AXI_AWSIZE[0] M1_AXI_AWSIZE[1] M1_AXI_AWSIZE[2] M1_AXI_AWVALID
+ M1_AXI_BID[0] M1_AXI_BID[1] M1_AXI_BID[2] M1_AXI_BID[3] M1_AXI_BREADY
+ M1_AXI_BRESP[0] M1_AXI_BRESP[1] M1_AXI_BVALID M1_AXI_RDATA[0]
+ M1_AXI_RDATA[10] M1_AXI_RDATA[11] M1_AXI_RDATA[12] M1_AXI_RDATA[13]
+ M1_AXI_RDATA[14] M1_AXI_RDATA[15] M1_AXI_RDATA[16] M1_AXI_RDATA[17]
+ M1_AXI_RDATA[18] M1_AXI_RDATA[19] M1_AXI_RDATA[1] M1_AXI_RDATA[20]
+ M1_AXI_RDATA[21] M1_AXI_RDATA[22] M1_AXI_RDATA[23] M1_AXI_RDATA[24]
+ M1_AXI_RDATA[25] M1_AXI_RDATA[26] M1_AXI_RDATA[27] M1_AXI_RDATA[28]
+ M1_AXI_RDATA[29] M1_AXI_RDATA[2] M1_AXI_RDATA[30] M1_AXI_RDATA[31]
+ M1_AXI_RDATA[3] M1_AXI_RDATA[4] M1_AXI_RDATA[5] M1_AXI_RDATA[6]
+ M1_AXI_RDATA[7] M1_AXI_RDATA[8] M1_AXI_RDATA[9] M1_AXI_RID[0]
+ M1_AXI_RID[1] M1_AXI_RID[2] M1_AXI_RID[3] M1_AXI_RLAST M1_AXI_RREADY
+ M1_AXI_RRESP[0] M1_AXI_RRESP[1] M1_AXI_RVALID M1_AXI_WDATA[0]
+ M1_AXI_WDATA[10] M1_AXI_WDATA[11] M1_AXI_WDATA[12] M1_AXI_WDATA[13]
+ M1_AXI_WDATA[14] M1_AXI_WDATA[15] M1_AXI_WDATA[16] M1_AXI_WDATA[17]
+ M1_AXI_WDATA[18] M1_AXI_WDATA[19] M1_AXI_WDATA[1] M1_AXI_WDATA[20]
+ M1_AXI_WDATA[21] M1_AXI_WDATA[22] M1_AXI_WDATA[23] M1_AXI_WDATA[24]
+ M1_AXI_WDATA[25] M1_AXI_WDATA[26] M1_AXI_WDATA[27] M1_AXI_WDATA[28]
+ M1_AXI_WDATA[29] M1_AXI_WDATA[2] M1_AXI_WDATA[30] M1_AXI_WDATA[31]
+ M1_AXI_WDATA[3] M1_AXI_WDATA[4] M1_AXI_WDATA[5] M1_AXI_WDATA[6]
+ M1_AXI_WDATA[7] M1_AXI_WDATA[8] M1_AXI_WDATA[9] M1_AXI_WID[0]
+ M1_AXI_WID[1] M1_AXI_WID[2] M1_AXI_WID[3] M1_AXI_WLAST M1_AXI_WREADY
+ M1_AXI_WSTRB[0] M1_AXI_WSTRB[1] M1_AXI_WSTRB[2] M1_AXI_WSTRB[3]
+ M1_AXI_WVALID M2_AXI_ARADDR[0] M2_AXI_ARADDR[10] M2_AXI_ARADDR[11]
+ M2_AXI_ARADDR[12] M2_AXI_ARADDR[13] M2_AXI_ARADDR[14] M2_AXI_ARADDR[15]
+ M2_AXI_ARADDR[16] M2_AXI_ARADDR[17] M2_AXI_ARADDR[18] M2_AXI_ARADDR[19]
+ M2_AXI_ARADDR[1] M2_AXI_ARADDR[20] M2_AXI_ARADDR[21] M2_AXI_ARADDR[22]
+ M2_AXI_ARADDR[23] M2_AXI_ARADDR[24] M2_AXI_ARADDR[25] M2_AXI_ARADDR[26]
+ M2_AXI_ARADDR[27] M2_AXI_ARADDR[28] M2_AXI_ARADDR[29] M2_AXI_ARADDR[2]
+ M2_AXI_ARADDR[30] M2_AXI_ARADDR[31] M2_AXI_ARADDR[3] M2_AXI_ARADDR[4]
+ M2_AXI_ARADDR[5] M2_AXI_ARADDR[6] M2_AXI_ARADDR[7] M2_AXI_ARADDR[8]
+ M2_AXI_ARADDR[9] M2_AXI_ARBURST[0] M2_AXI_ARBURST[1] M2_AXI_ARID[0]
+ M2_AXI_ARID[1] M2_AXI_ARID[2] M2_AXI_ARID[3] M2_AXI_ARLEN[0]
+ M2_AXI_ARLEN[1] M2_AXI_ARLEN[2] M2_AXI_ARLEN[3] M2_AXI_ARLEN[4]
+ M2_AXI_ARLEN[5] M2_AXI_ARLEN[6] M2_AXI_ARLEN[7] M2_AXI_ARREADY
+ M2_AXI_ARSIZE[0] M2_AXI_ARSIZE[1] M2_AXI_ARSIZE[2] M2_AXI_ARVALID
+ M2_AXI_AWADDR[0] M2_AXI_AWADDR[10] M2_AXI_AWADDR[11] M2_AXI_AWADDR[12]
+ M2_AXI_AWADDR[13] M2_AXI_AWADDR[14] M2_AXI_AWADDR[15] M2_AXI_AWADDR[16]
+ M2_AXI_AWADDR[17] M2_AXI_AWADDR[18] M2_AXI_AWADDR[19] M2_AXI_AWADDR[1]
+ M2_AXI_AWADDR[20] M2_AXI_AWADDR[21] M2_AXI_AWADDR[22] M2_AXI_AWADDR[23]
+ M2_AXI_AWADDR[24] M2_AXI_AWADDR[25] M2_AXI_AWADDR[26] M2_AXI_AWADDR[27]
+ M2_AXI_AWADDR[28] M2_AXI_AWADDR[29] M2_AXI_AWADDR[2] M2_AXI_AWADDR[30]
+ M2_AXI_AWADDR[31] M2_AXI_AWADDR[3] M2_AXI_AWADDR[4] M2_AXI_AWADDR[5]
+ M2_AXI_AWADDR[6] M2_AXI_AWADDR[7] M2_AXI_AWADDR[8] M2_AXI_AWADDR[9]
+ M2_AXI_AWBURST[0] M2_AXI_AWBURST[1] M2_AXI_AWID[0] M2_AXI_AWID[1]
+ M2_AXI_AWID[2] M2_AXI_AWID[3] M2_AXI_AWLEN[0] M2_AXI_AWLEN[1]
+ M2_AXI_AWLEN[2] M2_AXI_AWLEN[3] M2_AXI_AWLEN[4] M2_AXI_AWLEN[5]
+ M2_AXI_AWLEN[6] M2_AXI_AWLEN[7] M2_AXI_AWREADY M2_AXI_AWSIZE[0]
+ M2_AXI_AWSIZE[1] M2_AXI_AWSIZE[2] M2_AXI_AWVALID M2_AXI_BID[0]
+ M2_AXI_BID[1] M2_AXI_BID[2] M2_AXI_BID[3] M2_AXI_BREADY M2_AXI_BRESP[0]
+ M2_AXI_BRESP[1] M2_AXI_BVALID M2_AXI_RDATA[0] M2_AXI_RDATA[10]
+ M2_AXI_RDATA[11] M2_AXI_RDATA[12] M2_AXI_RDATA[13] M2_AXI_RDATA[14]
+ M2_AXI_RDATA[15] M2_AXI_RDATA[16] M2_AXI_RDATA[17] M2_AXI_RDATA[18]
+ M2_AXI_RDATA[19] M2_AXI_RDATA[1] M2_AXI_RDATA[20] M2_AXI_RDATA[21]
+ M2_AXI_RDATA[22] M2_AXI_RDATA[23] M2_AXI_RDATA[24] M2_AXI_RDATA[25]
+ M2_AXI_RDATA[26] M2_AXI_RDATA[27] M2_AXI_RDATA[28] M2_AXI_RDATA[29]
+ M2_AXI_RDATA[2] M2_AXI_RDATA[30] M2_AXI_RDATA[31] M2_AXI_RDATA[3]
+ M2_AXI_RDATA[4] M2_AXI_RDATA[5] M2_AXI_RDATA[6] M2_AXI_RDATA[7]
+ M2_AXI_RDATA[8] M2_AXI_RDATA[9] M2_AXI_RID[0] M2_AXI_RID[1]
+ M2_AXI_RID[2] M2_AXI_RID[3] M2_AXI_RLAST M2_AXI_RREADY M2_AXI_RRESP[0]
+ M2_AXI_RRESP[1] M2_AXI_RVALID M2_AXI_WDATA[0] M2_AXI_WDATA[10]
+ M2_AXI_WDATA[11] M2_AXI_WDATA[12] M2_AXI_WDATA[13] M2_AXI_WDATA[14]
+ M2_AXI_WDATA[15] M2_AXI_WDATA[16] M2_AXI_WDATA[17] M2_AXI_WDATA[18]
+ M2_AXI_WDATA[19] M2_AXI_WDATA[1] M2_AXI_WDATA[20] M2_AXI_WDATA[21]
+ M2_AXI_WDATA[22] M2_AXI_WDATA[23] M2_AXI_WDATA[24] M2_AXI_WDATA[25]
+ M2_AXI_WDATA[26] M2_AXI_WDATA[27] M2_AXI_WDATA[28] M2_AXI_WDATA[29]
+ M2_AXI_WDATA[2] M2_AXI_WDATA[30] M2_AXI_WDATA[31] M2_AXI_WDATA[3]
+ M2_AXI_WDATA[4] M2_AXI_WDATA[5] M2_AXI_WDATA[6] M2_AXI_WDATA[7]
+ M2_AXI_WDATA[8] M2_AXI_WDATA[9] M2_AXI_WID[0] M2_AXI_WID[1]
+ M2_AXI_WID[2] M2_AXI_WID[3] M2_AXI_WLAST M2_AXI_WREADY M2_AXI_WSTRB[0]
+ M2_AXI_WSTRB[1] M2_AXI_WSTRB[2] M2_AXI_WSTRB[3] M2_AXI_WVALID
+ S0_AXI_ARADDR[0] S0_AXI_ARADDR[10] S0_AXI_ARADDR[11] S0_AXI_ARADDR[12]
+ S0_AXI_ARADDR[13] S0_AXI_ARADDR[14] S0_AXI_ARADDR[15] S0_AXI_ARADDR[16]
+ S0_AXI_ARADDR[17] S0_AXI_ARADDR[18] S0_AXI_ARADDR[19] S0_AXI_ARADDR[1]
+ S0_AXI_ARADDR[20] S0_AXI_ARADDR[21] S0_AXI_ARADDR[22] S0_AXI_ARADDR[23]
+ S0_AXI_ARADDR[24] S0_AXI_ARADDR[25] S0_AXI_ARADDR[26] S0_AXI_ARADDR[27]
+ S0_AXI_ARADDR[28] S0_AXI_ARADDR[29] S0_AXI_ARADDR[2] S0_AXI_ARADDR[30]
+ S0_AXI_ARADDR[31] S0_AXI_ARADDR[3] S0_AXI_ARADDR[4] S0_AXI_ARADDR[5]
+ S0_AXI_ARADDR[6] S0_AXI_ARADDR[7] S0_AXI_ARADDR[8] S0_AXI_ARADDR[9]
+ S0_AXI_ARBURST[0] S0_AXI_ARBURST[1] S0_AXI_ARID[0] S0_AXI_ARID[1]
+ S0_AXI_ARID[2] S0_AXI_ARID[3] S0_AXI_ARID[4] S0_AXI_ARID[5]
+ S0_AXI_ARID[6] S0_AXI_ARID[7] S0_AXI_ARLEN[0] S0_AXI_ARLEN[1]
+ S0_AXI_ARLEN[2] S0_AXI_ARLEN[3] S0_AXI_ARLEN[4] S0_AXI_ARLEN[5]
+ S0_AXI_ARLEN[6] S0_AXI_ARLEN[7] S0_AXI_ARREADY S0_AXI_ARSIZE[0]
+ S0_AXI_ARSIZE[1] S0_AXI_ARSIZE[2] S0_AXI_ARVALID S0_AXI_AWADDR[0]
+ S0_AXI_AWADDR[10] S0_AXI_AWADDR[11] S0_AXI_AWADDR[12] S0_AXI_AWADDR[13]
+ S0_AXI_AWADDR[14] S0_AXI_AWADDR[15] S0_AXI_AWADDR[16] S0_AXI_AWADDR[17]
+ S0_AXI_AWADDR[18] S0_AXI_AWADDR[19] S0_AXI_AWADDR[1] S0_AXI_AWADDR[20]
+ S0_AXI_AWADDR[21] S0_AXI_AWADDR[22] S0_AXI_AWADDR[23] S0_AXI_AWADDR[24]
+ S0_AXI_AWADDR[25] S0_AXI_AWADDR[26] S0_AXI_AWADDR[27] S0_AXI_AWADDR[28]
+ S0_AXI_AWADDR[29] S0_AXI_AWADDR[2] S0_AXI_AWADDR[30] S0_AXI_AWADDR[31]
+ S0_AXI_AWADDR[3] S0_AXI_AWADDR[4] S0_AXI_AWADDR[5] S0_AXI_AWADDR[6]
+ S0_AXI_AWADDR[7] S0_AXI_AWADDR[8] S0_AXI_AWADDR[9] S0_AXI_AWBURST[0]
+ S0_AXI_AWBURST[1] S0_AXI_AWID[0] S0_AXI_AWID[1] S0_AXI_AWID[2]
+ S0_AXI_AWID[3] S0_AXI_AWID[4] S0_AXI_AWID[5] S0_AXI_AWID[6]
+ S0_AXI_AWID[7] S0_AXI_AWLEN[0] S0_AXI_AWLEN[1] S0_AXI_AWLEN[2]
+ S0_AXI_AWLEN[3] S0_AXI_AWLEN[4] S0_AXI_AWLEN[5] S0_AXI_AWLEN[6]
+ S0_AXI_AWLEN[7] S0_AXI_AWREADY S0_AXI_AWSIZE[0] S0_AXI_AWSIZE[1]
+ S0_AXI_AWSIZE[2] S0_AXI_AWVALID S0_AXI_BID[0] S0_AXI_BID[1]
+ S0_AXI_BID[2] S0_AXI_BID[3] S0_AXI_BID[4] S0_AXI_BID[5] S0_AXI_BID[6]
+ S0_AXI_BID[7] S0_AXI_BREADY S0_AXI_BRESP[0] S0_AXI_BRESP[1]
+ S0_AXI_BVALID S0_AXI_RDATA[0] S0_AXI_RDATA[10] S0_AXI_RDATA[11]
+ S0_AXI_RDATA[12] S0_AXI_RDATA[13] S0_AXI_RDATA[14] S0_AXI_RDATA[15]
+ S0_AXI_RDATA[16] S0_AXI_RDATA[17] S0_AXI_RDATA[18] S0_AXI_RDATA[19]
+ S0_AXI_RDATA[1] S0_AXI_RDATA[20] S0_AXI_RDATA[21] S0_AXI_RDATA[22]
+ S0_AXI_RDATA[23] S0_AXI_RDATA[24] S0_AXI_RDATA[25] S0_AXI_RDATA[26]
+ S0_AXI_RDATA[27] S0_AXI_RDATA[28] S0_AXI_RDATA[29] S0_AXI_RDATA[2]
+ S0_AXI_RDATA[30] S0_AXI_RDATA[31] S0_AXI_RDATA[3] S0_AXI_RDATA[4]
+ S0_AXI_RDATA[5] S0_AXI_RDATA[6] S0_AXI_RDATA[7] S0_AXI_RDATA[8]
+ S0_AXI_RDATA[9] S0_AXI_RID[0] S0_AXI_RID[1] S0_AXI_RID[2]
+ S0_AXI_RID[3] S0_AXI_RID[4] S0_AXI_RID[5] S0_AXI_RID[6] S0_AXI_RID[7]
+ S0_AXI_RLAST S0_AXI_RREADY S0_AXI_RRESP[0] S0_AXI_RRESP[1]
+ S0_AXI_RVALID S0_AXI_WDATA[0] S0_AXI_WDATA[10] S0_AXI_WDATA[11]
+ S0_AXI_WDATA[12] S0_AXI_WDATA[13] S0_AXI_WDATA[14] S0_AXI_WDATA[15]
+ S0_AXI_WDATA[16] S0_AXI_WDATA[17] S0_AXI_WDATA[18] S0_AXI_WDATA[19]
+ S0_AXI_WDATA[1] S0_AXI_WDATA[20] S0_AXI_WDATA[21] S0_AXI_WDATA[22]
+ S0_AXI_WDATA[23] S0_AXI_WDATA[24] S0_AXI_WDATA[25] S0_AXI_WDATA[26]
+ S0_AXI_WDATA[27] S0_AXI_WDATA[28] S0_AXI_WDATA[29] S0_AXI_WDATA[2]
+ S0_AXI_WDATA[30] S0_AXI_WDATA[31] S0_AXI_WDATA[3] S0_AXI_WDATA[4]
+ S0_AXI_WDATA[5] S0_AXI_WDATA[6] S0_AXI_WDATA[7] S0_AXI_WDATA[8]
+ S0_AXI_WDATA[9] S0_AXI_WID[0] S0_AXI_WID[1] S0_AXI_WID[2]
+ S0_AXI_WID[3] S0_AXI_WID[4] S0_AXI_WID[5] S0_AXI_WID[6] S0_AXI_WID[7]
+ S0_AXI_WLAST S0_AXI_WREADY S0_AXI_WSTRB[0] S0_AXI_WSTRB[1]
+ S0_AXI_WSTRB[2] S0_AXI_WSTRB[3] S0_AXI_WVALID S1_AXI_ARADDR[0]
+ S1_AXI_ARADDR[10] S1_AXI_ARADDR[11] S1_AXI_ARADDR[12] S1_AXI_ARADDR[13]
+ S1_AXI_ARADDR[14] S1_AXI_ARADDR[15] S1_AXI_ARADDR[16] S1_AXI_ARADDR[17]
+ S1_AXI_ARADDR[18] S1_AXI_ARADDR[19] S1_AXI_ARADDR[1] S1_AXI_ARADDR[20]
+ S1_AXI_ARADDR[21] S1_AXI_ARADDR[22] S1_AXI_ARADDR[23] S1_AXI_ARADDR[24]
+ S1_AXI_ARADDR[25] S1_AXI_ARADDR[26] S1_AXI_ARADDR[27] S1_AXI_ARADDR[28]
+ S1_AXI_ARADDR[29] S1_AXI_ARADDR[2] S1_AXI_ARADDR[30] S1_AXI_ARADDR[31]
+ S1_AXI_ARADDR[3] S1_AXI_ARADDR[4] S1_AXI_ARADDR[5] S1_AXI_ARADDR[6]
+ S1_AXI_ARADDR[7] S1_AXI_ARADDR[8] S1_AXI_ARADDR[9] S1_AXI_ARBURST[0]
+ S1_AXI_ARBURST[1] S1_AXI_ARID[0] S1_AXI_ARID[1] S1_AXI_ARID[2]
+ S1_AXI_ARID[3] S1_AXI_ARID[4] S1_AXI_ARID[5] S1_AXI_ARID[6]
+ S1_AXI_ARID[7] S1_AXI_ARLEN[0] S1_AXI_ARLEN[1] S1_AXI_ARLEN[2]
+ S1_AXI_ARLEN[3] S1_AXI_ARLEN[4] S1_AXI_ARLEN[5] S1_AXI_ARLEN[6]
+ S1_AXI_ARLEN[7] S1_AXI_ARREADY S1_AXI_ARSIZE[0] S1_AXI_ARSIZE[1]
+ S1_AXI_ARSIZE[2] S1_AXI_ARVALID S1_AXI_AWADDR[0] S1_AXI_AWADDR[10]
+ S1_AXI_AWADDR[11] S1_AXI_AWADDR[12] S1_AXI_AWADDR[13] S1_AXI_AWADDR[14]
+ S1_AXI_AWADDR[15] S1_AXI_AWADDR[16] S1_AXI_AWADDR[17] S1_AXI_AWADDR[18]
+ S1_AXI_AWADDR[19] S1_AXI_AWADDR[1] S1_AXI_AWADDR[20] S1_AXI_AWADDR[21]
+ S1_AXI_AWADDR[22] S1_AXI_AWADDR[23] S1_AXI_AWADDR[24] S1_AXI_AWADDR[25]
+ S1_AXI_AWADDR[26] S1_AXI_AWADDR[27] S1_AXI_AWADDR[28] S1_AXI_AWADDR[29]
+ S1_AXI_AWADDR[2] S1_AXI_AWADDR[30] S1_AXI_AWADDR[31] S1_AXI_AWADDR[3]
+ S1_AXI_AWADDR[4] S1_AXI_AWADDR[5] S1_AXI_AWADDR[6] S1_AXI_AWADDR[7]
+ S1_AXI_AWADDR[8] S1_AXI_AWADDR[9] S1_AXI_AWBURST[0] S1_AXI_AWBURST[1]
+ S1_AXI_AWID[0] S1_AXI_AWID[1] S1_AXI_AWID[2] S1_AXI_AWID[3]
+ S1_AXI_AWID[4] S1_AXI_AWID[5] S1_AXI_AWID[6] S1_AXI_AWID[7]
+ S1_AXI_AWLEN[0] S1_AXI_AWLEN[1] S1_AXI_AWLEN[2] S1_AXI_AWLEN[3]
+ S1_AXI_AWLEN[4] S1_AXI_AWLEN[5] S1_AXI_AWLEN[6] S1_AXI_AWLEN[7]
+ S1_AXI_AWREADY S1_AXI_AWSIZE[0] S1_AXI_AWSIZE[1] S1_AXI_AWSIZE[2]
+ S1_AXI_AWVALID S1_AXI_BID[0] S1_AXI_BID[1] S1_AXI_BID[2] S1_AXI_BID[3]
+ S1_AXI_BID[4] S1_AXI_BID[5] S1_AXI_BID[6] S1_AXI_BID[7] S1_AXI_BREADY
+ S1_AXI_BRESP[0] S1_AXI_BRESP[1] S1_AXI_BVALID S1_AXI_RDATA[0]
+ S1_AXI_RDATA[10] S1_AXI_RDATA[11] S1_AXI_RDATA[12] S1_AXI_RDATA[13]
+ S1_AXI_RDATA[14] S1_AXI_RDATA[15] S1_AXI_RDATA[16] S1_AXI_RDATA[17]
+ S1_AXI_RDATA[18] S1_AXI_RDATA[19] S1_AXI_RDATA[1] S1_AXI_RDATA[20]
+ S1_AXI_RDATA[21] S1_AXI_RDATA[22] S1_AXI_RDATA[23] S1_AXI_RDATA[24]
+ S1_AXI_RDATA[25] S1_AXI_RDATA[26] S1_AXI_RDATA[27] S1_AXI_RDATA[28]
+ S1_AXI_RDATA[29] S1_AXI_RDATA[2] S1_AXI_RDATA[30] S1_AXI_RDATA[31]
+ S1_AXI_RDATA[3] S1_AXI_RDATA[4] S1_AXI_RDATA[5] S1_AXI_RDATA[6]
+ S1_AXI_RDATA[7] S1_AXI_RDATA[8] S1_AXI_RDATA[9] S1_AXI_RID[0]
+ S1_AXI_RID[1] S1_AXI_RID[2] S1_AXI_RID[3] S1_AXI_RID[4] S1_AXI_RID[5]
+ S1_AXI_RID[6] S1_AXI_RID[7] S1_AXI_RLAST S1_AXI_RREADY S1_AXI_RRESP[0]
+ S1_AXI_RRESP[1] S1_AXI_RVALID S1_AXI_WDATA[0] S1_AXI_WDATA[10]
+ S1_AXI_WDATA[11] S1_AXI_WDATA[12] S1_AXI_WDATA[13] S1_AXI_WDATA[14]
+ S1_AXI_WDATA[15] S1_AXI_WDATA[16] S1_AXI_WDATA[17] S1_AXI_WDATA[18]
+ S1_AXI_WDATA[19] S1_AXI_WDATA[1] S1_AXI_WDATA[20] S1_AXI_WDATA[21]
+ S1_AXI_WDATA[22] S1_AXI_WDATA[23] S1_AXI_WDATA[24] S1_AXI_WDATA[25]
+ S1_AXI_WDATA[26] S1_AXI_WDATA[27] S1_AXI_WDATA[28] S1_AXI_WDATA[29]
+ S1_AXI_WDATA[2] S1_AXI_WDATA[30] S1_AXI_WDATA[31] S1_AXI_WDATA[3]
+ S1_AXI_WDATA[4] S1_AXI_WDATA[5] S1_AXI_WDATA[6] S1_AXI_WDATA[7]
+ S1_AXI_WDATA[8] S1_AXI_WDATA[9] S1_AXI_WID[0] S1_AXI_WID[1]
+ S1_AXI_WID[2] S1_AXI_WID[3] S1_AXI_WID[4] S1_AXI_WID[5] S1_AXI_WID[6]
+ S1_AXI_WID[7] S1_AXI_WLAST S1_AXI_WREADY S1_AXI_WSTRB[0] S1_AXI_WSTRB[1]
+ S1_AXI_WSTRB[2] S1_AXI_WSTRB[3] S1_AXI_WVALID S2_AXI_ARADDR[0]
+ S2_AXI_ARADDR[10] S2_AXI_ARADDR[11] S2_AXI_ARADDR[12] S2_AXI_ARADDR[13]
+ S2_AXI_ARADDR[14] S2_AXI_ARADDR[15] S2_AXI_ARADDR[16] S2_AXI_ARADDR[17]
+ S2_AXI_ARADDR[18] S2_AXI_ARADDR[19] S2_AXI_ARADDR[1] S2_AXI_ARADDR[20]
+ S2_AXI_ARADDR[21] S2_AXI_ARADDR[22] S2_AXI_ARADDR[23] S2_AXI_ARADDR[24]
+ S2_AXI_ARADDR[25] S2_AXI_ARADDR[26] S2_AXI_ARADDR[27] S2_AXI_ARADDR[28]
+ S2_AXI_ARADDR[29] S2_AXI_ARADDR[2] S2_AXI_ARADDR[30] S2_AXI_ARADDR[31]
+ S2_AXI_ARADDR[3] S2_AXI_ARADDR[4] S2_AXI_ARADDR[5] S2_AXI_ARADDR[6]
+ S2_AXI_ARADDR[7] S2_AXI_ARADDR[8] S2_AXI_ARADDR[9] S2_AXI_ARBURST[0]
+ S2_AXI_ARBURST[1] S2_AXI_ARID[0] S2_AXI_ARID[1] S2_AXI_ARID[2]
+ S2_AXI_ARID[3] S2_AXI_ARID[4] S2_AXI_ARID[5] S2_AXI_ARID[6]
+ S2_AXI_ARID[7] S2_AXI_ARLEN[0] S2_AXI_ARLEN[1] S2_AXI_ARLEN[2]
+ S2_AXI_ARLEN[3] S2_AXI_ARLEN[4] S2_AXI_ARLEN[5] S2_AXI_ARLEN[6]
+ S2_AXI_ARLEN[7] S2_AXI_ARREADY S2_AXI_ARSIZE[0] S2_AXI_ARSIZE[1]
+ S2_AXI_ARSIZE[2] S2_AXI_ARVALID S2_AXI_AWADDR[0] S2_AXI_AWADDR[10]
+ S2_AXI_AWADDR[11] S2_AXI_AWADDR[12] S2_AXI_AWADDR[13] S2_AXI_AWADDR[14]
+ S2_AXI_AWADDR[15] S2_AXI_AWADDR[16] S2_AXI_AWADDR[17] S2_AXI_AWADDR[18]
+ S2_AXI_AWADDR[19] S2_AXI_AWADDR[1] S2_AXI_AWADDR[20] S2_AXI_AWADDR[21]
+ S2_AXI_AWADDR[22] S2_AXI_AWADDR[23] S2_AXI_AWADDR[24] S2_AXI_AWADDR[25]
+ S2_AXI_AWADDR[26] S2_AXI_AWADDR[27] S2_AXI_AWADDR[28] S2_AXI_AWADDR[29]
+ S2_AXI_AWADDR[2] S2_AXI_AWADDR[30] S2_AXI_AWADDR[31] S2_AXI_AWADDR[3]
+ S2_AXI_AWADDR[4] S2_AXI_AWADDR[5] S2_AXI_AWADDR[6] S2_AXI_AWADDR[7]
+ S2_AXI_AWADDR[8] S2_AXI_AWADDR[9] S2_AXI_AWBURST[0] S2_AXI_AWBURST[1]
+ S2_AXI_AWID[0] S2_AXI_AWID[1] S2_AXI_AWID[2] S2_AXI_AWID[3]
+ S2_AXI_AWID[4] S2_AXI_AWID[5] S2_AXI_AWID[6] S2_AXI_AWID[7]
+ S2_AXI_AWLEN[0] S2_AXI_AWLEN[1] S2_AXI_AWLEN[2] S2_AXI_AWLEN[3]
+ S2_AXI_AWLEN[4] S2_AXI_AWLEN[5] S2_AXI_AWLEN[6] S2_AXI_AWLEN[7]
+ S2_AXI_AWREADY S2_AXI_AWSIZE[0] S2_AXI_AWSIZE[1] S2_AXI_AWSIZE[2]
+ S2_AXI_AWVALID S2_AXI_BID[0] S2_AXI_BID[1] S2_AXI_BID[2] S2_AXI_BID[3]
+ S2_AXI_BID[4] S2_AXI_BID[5] S2_AXI_BID[6] S2_AXI_BID[7] S2_AXI_BREADY
+ S2_AXI_BRESP[0] S2_AXI_BRESP[1] S2_AXI_BVALID S2_AXI_RDATA[0]
+ S2_AXI_RDATA[10] S2_AXI_RDATA[11] S2_AXI_RDATA[12] S2_AXI_RDATA[13]
+ S2_AXI_RDATA[14] S2_AXI_RDATA[15] S2_AXI_RDATA[16] S2_AXI_RDATA[17]
+ S2_AXI_RDATA[18] S2_AXI_RDATA[19] S2_AXI_RDATA[1] S2_AXI_RDATA[20]
+ S2_AXI_RDATA[21] S2_AXI_RDATA[22] S2_AXI_RDATA[23] S2_AXI_RDATA[24]
+ S2_AXI_RDATA[25] S2_AXI_RDATA[26] S2_AXI_RDATA[27] S2_AXI_RDATA[28]
+ S2_AXI_RDATA[29] S2_AXI_RDATA[2] S2_AXI_RDATA[30] S2_AXI_RDATA[31]
+ S2_AXI_RDATA[3] S2_AXI_RDATA[4] S2_AXI_RDATA[5] S2_AXI_RDATA[6]
+ S2_AXI_RDATA[7] S2_AXI_RDATA[8] S2_AXI_RDATA[9] S2_AXI_RID[0]
+ S2_AXI_RID[1] S2_AXI_RID[2] S2_AXI_RID[3] S2_AXI_RID[4] S2_AXI_RID[5]
+ S2_AXI_RID[6] S2_AXI_RID[7] S2_AXI_RLAST S2_AXI_RREADY S2_AXI_RRESP[0]
+ S2_AXI_RRESP[1] S2_AXI_RVALID S2_AXI_WDATA[0] S2_AXI_WDATA[10]
+ S2_AXI_WDATA[11] S2_AXI_WDATA[12] S2_AXI_WDATA[13] S2_AXI_WDATA[14]
+ S2_AXI_WDATA[15] S2_AXI_WDATA[16] S2_AXI_WDATA[17] S2_AXI_WDATA[18]
+ S2_AXI_WDATA[19] S2_AXI_WDATA[1] S2_AXI_WDATA[20] S2_AXI_WDATA[21]
+ S2_AXI_WDATA[22] S2_AXI_WDATA[23] S2_AXI_WDATA[24] S2_AXI_WDATA[25]
+ S2_AXI_WDATA[26] S2_AXI_WDATA[27] S2_AXI_WDATA[28] S2_AXI_WDATA[29]
+ S2_AXI_WDATA[2] S2_AXI_WDATA[30] S2_AXI_WDATA[31] S2_AXI_WDATA[3]
+ S2_AXI_WDATA[4] S2_AXI_WDATA[5] S2_AXI_WDATA[6] S2_AXI_WDATA[7]
+ S2_AXI_WDATA[8] S2_AXI_WDATA[9] S2_AXI_WID[0] S2_AXI_WID[1]
+ S2_AXI_WID[2] S2_AXI_WID[3] S2_AXI_WID[4] S2_AXI_WID[5] S2_AXI_WID[6]
+ S2_AXI_WID[7] S2_AXI_WLAST S2_AXI_WREADY S2_AXI_WSTRB[0] S2_AXI_WSTRB[1]
+ S2_AXI_WSTRB[2] S2_AXI_WSTRB[3] S2_AXI_WVALID paddr[0] paddr[10]
+ paddr[11] paddr[12] paddr[13] paddr[14] paddr[15] paddr[16]
+ paddr[17] paddr[18] paddr[19] paddr[1] paddr[20] paddr[21]
+ paddr[22] paddr[23] paddr[24] paddr[25] paddr[26] paddr[27]
+ paddr[28] paddr[29] paddr[2] paddr[30] paddr[31] paddr[3]
+ paddr[4] paddr[5] paddr[6] paddr[7] paddr[8] paddr[9] penable
+ prdata[0] prdata[10] prdata[11] prdata[12] prdata[13] prdata[14]
+ prdata[15] prdata[16] prdata[17] prdata[18] prdata[19] prdata[1]
+ prdata[20] prdata[21] prdata[22] prdata[23] prdata[24] prdata[25]
+ prdata[26] prdata[27] prdata[28] prdata[29] prdata[2] prdata[30]
+ prdata[31] prdata[3] prdata[4] prdata[5] prdata[6] prdata[7]
+ prdata[8] prdata[9] psel pwdata[0] pwdata[10] pwdata[11] pwdata[12]
+ pwdata[13] pwdata[14] pwdata[15] pwdata[16] pwdata[17] pwdata[18]
+ pwdata[19] pwdata[1] pwdata[20] pwdata[21] pwdata[22] pwdata[23]
+ pwdata[24] pwdata[25] pwdata[26] pwdata[27] pwdata[28] pwdata[29]
+ pwdata[2] pwdata[30] pwdata[31] pwdata[3] pwdata[4] pwdata[5]
+ pwdata[6] pwdata[7] pwdata[8] pwdata[9] pwrite NWELL PWELL BULK
X_2 M0_AXI_ARADDR[15] _9459 NWELL PWELL BULK CLKBUF_X2
X_8 pwrite _1046 NWELL PWELL BULK BUF_X1
X_14 psel _387 NWELL PWELL BULK BUF_X1
X_19 _3570 prdata[5] NWELL PWELL BULK BUF_X1
X_26 _545 prdata[4] NWELL PWELL BULK BUF_X1
X_32 _2937 prdata[3] NWELL PWELL BULK BUF_X1
X_38 _922 prdata[2] NWELL PWELL BULK BUF_X1
X_44 _2298 prdata[1] NWELL PWELL BULK BUF_X1
X_50 _2297 prdata[0] NWELL PWELL BULK BUF_X1
X_60 penable _390 NWELL PWELL BULK BUF_X1
X_62 paddr[9] _428 NWELL PWELL BULK BUF_X1
X_68 _598 S1_AXI_AWADDR[22] NWELL PWELL BULK BUF_X1
X_74 paddr[8] _1290 NWELL PWELL BULK BUF_X1
X_80 paddr[7] _923 NWELL PWELL BULK BUF_X1
X_86 paddr[6] _1443 NWELL PWELL BULK BUF_X1
X_92 paddr[5] _924 NWELL PWELL BULK BUF_X1
X_98 paddr[4] _1045 NWELL PWELL BULK BUF_X1
X_104 paddr[3] _927 NWELL PWELL BULK BUF_X1
X_110 paddr[31] _926 NWELL PWELL BULK BUF_X1
X_116 paddr[30] _925 NWELL PWELL BULK BUF_X1
X_122 _1431 S1_AXI_AWADDR[12] NWELL PWELL BULK BUF_X1
X_128 paddr[2] _2841 NWELL PWELL BULK BUF_X1
X_134 paddr[29] _1774 NWELL PWELL BULK BUF_X1
X_140 _2473 S1_AXI_AWADDR[31] NWELL PWELL BULK BUF_X1
X_146 paddr[28] _628 NWELL PWELL BULK BUF_X1
X_152 paddr[27] _438 NWELL PWELL BULK BUF_X1
X_158 paddr[26] _1285 NWELL PWELL BULK BUF_X1
X_164 paddr[25] _1287 NWELL PWELL BULK BUF_X1
X_170 paddr[24] _647 NWELL PWELL BULK BUF_X1
X_176 _2485 S1_AXI_AWADDR[26] NWELL PWELL BULK BUF_X1
X_182 paddr[23] _653 NWELL PWELL BULK BUF_X1
X_188 paddr[22] _650 NWELL PWELL BULK BUF_X1
X_194 _2470 S1_AXI_AWADDR[19] NWELL PWELL BULK BUF_X1
X_200 paddr[21] _930 NWELL PWELL BULK BUF_X1
X_206 paddr[20] _929 NWELL PWELL BULK BUF_X1
X_212 paddr[1] _547 NWELL PWELL BULK BUF_X1
X_218 paddr[19] _1932 NWELL PWELL BULK BUF_X1
X_224 paddr[18] _548 NWELL PWELL BULK BUF_X1
X_230 paddr[17] _1294 NWELL PWELL BULK BUF_X1
X_236 _2489 S1_AXI_AWADDR[24] NWELL PWELL BULK BUF_X1
X_242 _4312 S1_AXI_AWADDR[29] NWELL PWELL BULK BUF_X1
X_248 paddr[16] _932 NWELL PWELL BULK BUF_X1
X_254 paddr[15] _1972 NWELL PWELL BULK BUF_X1
X_260 paddr[14] _391 NWELL PWELL BULK BUF_X1
X_270 paddr[13] _395 NWELL PWELL BULK BUF_X1
X_272 paddr[12] _1978 NWELL PWELL BULK BUF_X1
X_278 _2513 S1_AXI_AWADDR[13] NWELL PWELL BULK BUF_X1
X_284 paddr[11] _1090 NWELL PWELL BULK BUF_X1
X_290 _2507 S1_AXI_AWADDR[14] NWELL PWELL BULK BUF_X1
X_296 paddr[10] _393 NWELL PWELL BULK BUF_X1
X_302 _696 S1_AXI_AWLEN[0] NWELL PWELL BULK BUF_X1
X_308 paddr[0] _456 NWELL PWELL BULK BUF_X1
X_314 M1_AXI_ARLEN[3] _18748 NWELL PWELL BULK CLKBUF_X2
X_320 _1991 S1_AXI_AWID[2] NWELL PWELL BULK BUF_X1
X_326 _1297 S1_AXI_AWLEN[4] NWELL PWELL BULK BUF_X1
X_332 _693 S1_AXI_AWID[3] NWELL PWELL BULK BUF_X1
X_338 M1_AXI_ARADDR[0] _1104 NWELL PWELL BULK BUF_X1
X_344 M1_AXI_ARADDR[10] _1987 NWELL PWELL BULK BUF_X1
X_350 M1_AXI_ARADDR[16] _2007 NWELL PWELL BULK BUF_X1
X_356 M1_AXI_ARADDR[3] _1783 NWELL PWELL BULK BUF_X1
X_362 _2522 S1_AXI_AWID[5] NWELL PWELL BULK BUF_X1
X_368 M1_AXI_ARADDR[23] _1126 NWELL PWELL BULK BUF_X1
X_374 _2005 S1_AXI_AWLEN[3] NWELL PWELL BULK BUF_X1
X_380 M1_AXI_ARBURST[0] _389 NWELL PWELL BULK BUF_X1
X_386 _723 S1_AXI_AWLEN[1] NWELL PWELL BULK BUF_X1
X_392 _734 S1_AXI_AWLEN[5] NWELL PWELL BULK BUF_X1
X_402 M1_AXI_ARADDR[19] _2030 NWELL PWELL BULK BUF_X1
X_404 M1_AXI_ARADDR[29] _2025 NWELL PWELL BULK BUF_X1
X_410 _3183 S1_AXI_AWID[1] NWELL PWELL BULK BUF_X1
X_416 M1_AXI_ARADDR[22] _1128 NWELL PWELL BULK CLKBUF_X2
X_422 M1_AXI_ARADDR[24] _1524 NWELL PWELL BULK BUF_X1
X_428 M1_AXI_ARADDR[20] _2033 NWELL PWELL BULK BUF_X1
X_434 M1_AXI_ARSIZE[0] _2027 NWELL PWELL BULK BUF_X1
X_440 M1_AXI_ARADDR[2] _449 NWELL PWELL BULK BUF_X1
X_446 S1_AXI_AWREADY _933 NWELL PWELL BULK BUF_X1
X_452 _470 S1_AXI_AWLEN[6] NWELL PWELL BULK BUF_X1
X_458 M1_AXI_ARADDR[27] _2320 NWELL PWELL BULK BUF_X1
X_464 _471 S1_AXI_AWVALID NWELL PWELL BULK BUF_X1
X_470 _2035 S1_AXI_AWLEN[2] NWELL PWELL BULK BUF_X1
X_476 _3778 S1_AXI_AWLEN[7] NWELL PWELL BULK BUF_X1
X_482 M1_AXI_ARADDR[28] _2051 NWELL PWELL BULK BUF_X1
X_488 M1_AXI_ARADDR[6] _2558 NWELL PWELL BULK BUF_X1
X_494 M1_AXI_ARADDR[17] _1169 NWELL PWELL BULK BUF_X1
X_500 M1_AXI_ARADDR[25] _3589 NWELL PWELL BULK BUF_X1
X_506 M1_AXI_ARADDR[26] _2063 NWELL PWELL BULK BUF_X1
X_512 M1_AXI_ARADDR[31] _1796 NWELL PWELL BULK BUF_X1
X_518 _2573 M1_AXI_ARREADY NWELL PWELL BULK BUF_X1
X_524 M1_AXI_ARADDR[8] _4996 NWELL PWELL BULK BUF_X1
X_530 M1_AXI_ARADDR[9] _942 NWELL PWELL BULK BUF_X1
X_536 M1_AXI_ARVALID _1183 NWELL PWELL BULK CLKBUF_X2
X_542 M1_AXI_ARADDR[7] _554 NWELL PWELL BULK BUF_X1
X_548 M1_AXI_ARSIZE[2] _1141 NWELL PWELL BULK BUF_X1
X_554 M1_AXI_ARADDR[18] _2074 NWELL PWELL BULK BUF_X1
X_560 M1_AXI_ARADDR[30] _2328 NWELL PWELL BULK BUF_X1
X_568 M1_AXI_ARADDR[13] _1178 NWELL PWELL BULK CLKBUF_X2
X_574 M1_AXI_ARADDR[15] _2082 NWELL PWELL BULK BUF_X1
X_580 M1_AXI_ARADDR[4] _4334 NWELL PWELL BULK BUF_X1
X_586 M1_AXI_ARADDR[21] _3194 NWELL PWELL BULK BUF_X1
X_592 M1_AXI_ARADDR[5] _1789 NWELL PWELL BULK BUF_X1
X_598 M0_AXI_ARSIZE[0] _947 NWELL PWELL BULK BUF_X1
X_604 M1_AXI_ARADDR[12] _399 NWELL PWELL BULK BUF_X1
X_610 M0_AXI_ARADDR[21] _2101 NWELL PWELL BULK BUF_X1
X_616 M0_AXI_ARADDR[18] _2105 NWELL PWELL BULK BUF_X1
X_622 M1_AXI_ARBURST[1] _3033 NWELL PWELL BULK BUF_X1
X_628 M0_AXI_ARADDR[24] _2106 NWELL PWELL BULK BUF_X1
X_634 M1_AXI_ARADDR[1] _559 NWELL PWELL BULK BUF_X1
X_640 M1_AXI_ARADDR[11] _1797 NWELL PWELL BULK BUF_X1
X_646 M0_AXI_ARADDR[29] _2098 NWELL PWELL BULK BUF_X1
X_654 M0_AXI_ARADDR[19] _2119 NWELL PWELL BULK BUF_X1
X_660 M0_AXI_ARADDR[27] _2339 NWELL PWELL BULK BUF_X1
X_666 M0_AXI_ARADDR[26] _2112 NWELL PWELL BULK BUF_X1
X_672 M0_AXI_ARADDR[3] _2111 NWELL PWELL BULK BUF_X1
X_678 M0_AXI_ARADDR[28] _3196 NWELL PWELL BULK BUF_X1
X_684 M0_AXI_ARSIZE[2] _944 NWELL PWELL BULK BUF_X1
X_690 M1_AXI_ARADDR[14] _954 NWELL PWELL BULK CLKBUF_X2
X_696 M1_AXI_ARLEN[2] _1237 NWELL PWELL BULK CLKBUF_X2
X_702 _1321 S2_AXI_ARADDR[6] NWELL PWELL BULK BUF_X1
X_708 _1604 S2_AXI_ARSIZE[0] NWELL PWELL BULK BUF_X1
X_714 _828 S2_AXI_ARADDR[9] NWELL PWELL BULK BUF_X1
X_720 _832 S2_AXI_ARADDR[8] NWELL PWELL BULK BUF_X1
X_726 _839 S2_AXI_ARADDR[7] NWELL PWELL BULK BUF_X1
X_732 M1_AXI_ARSIZE[1] _1305 NWELL PWELL BULK BUF_X1
X_738 M0_AXI_ARADDR[20] _1234 NWELL PWELL BULK CLKBUF_X2
X_744 M0_AXI_ARADDR[5] _2625 NWELL PWELL BULK BUF_X1
X_752 M0_AXI_ARBURST[0] _398 NWELL PWELL BULK BUF_X1
X_758 M0_AXI_ARADDR[16] _2134 NWELL PWELL BULK BUF_X1
X_764 M0_AXI_ARADDR[17] _1257 NWELL PWELL BULK BUF_X1
X_770 M0_AXI_ARADDR[12] _1246 NWELL PWELL BULK BUF_X1
X_776 M0_AXI_ARADDR[23] _1606 NWELL PWELL BULK BUF_X1
X_782 M0_AXI_ARADDR[6] _4677 NWELL PWELL BULK BUF_X1
X_788 M0_AXI_ARADDR[30] _2168 NWELL PWELL BULK BUF_X1
X_794 M0_AXI_ARADDR[7] _563 NWELL PWELL BULK BUF_X1
X_800 M0_AXI_ARADDR[2] _1314 NWELL PWELL BULK BUF_X1
X_808 M2_AXI_ARLEN[0] _1259 NWELL PWELL BULK CLKBUF_X2
X_814 M2_AXI_ARADDR[5] _956 NWELL PWELL BULK BUF_X1
X_820 M0_AXI_ARADDR[25] _958 NWELL PWELL BULK BUF_X1
X_826 M0_AXI_ARADDR[31] _401 NWELL PWELL BULK BUF_X1
X_832 M2_AXI_ARADDR[13] _1643 NWELL PWELL BULK CLKBUF_X2
X_838 M2_AXI_ARLEN[4] _1270 NWELL PWELL BULK CLKBUF_X2
X_844 M2_AXI_ARADDR[2] _2350 NWELL PWELL BULK BUF_X1
X_850 M2_AXI_ARADDR[18] _1268 NWELL PWELL BULK BUF_X1
X_856 M0_AXI_ARADDR[22] _1276 NWELL PWELL BULK BUF_X1
X_862 M2_AXI_ARADDR[19] _1275 NWELL PWELL BULK BUF_X1
X_868 M2_AXI_ARADDR[26] _565 NWELL PWELL BULK BUF_X1
X_874 M2_AXI_ARADDR[27] _1817 NWELL PWELL BULK BUF_X1
X_880 M2_AXI_ARADDR[3] _564 NWELL PWELL BULK BUF_X1
X_886 M0_AXI_ARADDR[8] _1821 NWELL PWELL BULK BUF_X1
X_892 M2_AXI_ARADDR[30] _2206 NWELL PWELL BULK BUF_X1
X_902 M0_AXI_ARLEN[3] _895 NWELL PWELL BULK BUF_X2
X_904 M2_AXI_ARADDR[29] _404 NWELL PWELL BULK BUF_X1
X_910 M2_AXI_ARID[0] _566 NWELL PWELL BULK BUF_X2
X_916 M2_AXI_ARLEN[1] _907 NWELL PWELL BULK BUF_X2
X_922 M2_AXI_ARADDR[22] _1829 NWELL PWELL BULK BUF_X1
X_928 M2_AXI_ARADDR[24] _1679 NWELL PWELL BULK BUF_X1
X_934 M2_AXI_ARADDR[25] _2355 NWELL PWELL BULK BUF_X1
X_940 M2_AXI_ARADDR[9] _1823 NWELL PWELL BULK BUF_X1