* Extracted by KLayout on : 18/08/2024 14:51

.SUBCKT axi_interconnect M0_AXI_ARADDR[15] pwrite psel prdata[5] prdata[4]
+ prdata[3] prdata[2] prdata[1] prdata[0] penable paddr[9] S1_AXI_AWADDR[22]
+ paddr[8] paddr[7] paddr[6] paddr[5] paddr[4] paddr[3] paddr[31] paddr[30]
+ S1_AXI_AWADDR[12] paddr[2] paddr[29] S1_AXI_AWADDR[31] paddr[28] paddr[27]
+ paddr[26] paddr[25] paddr[24] S1_AXI_AWADDR[26] paddr[23] paddr[22]
+ S1_AXI_AWADDR[19] paddr[21] paddr[20] paddr[1] paddr[19] paddr[18] paddr[17]
+ S1_AXI_AWADDR[24] S1_AXI_AWADDR[29] paddr[16] paddr[15] paddr[14] paddr[13]
+ paddr[12] S1_AXI_AWADDR[13] paddr[11] S1_AXI_AWADDR[14] paddr[10]
+ S1_AXI_AWLEN[0] paddr[0] M1_AXI_ARLEN[3] S1_AXI_AWID[2] S1_AXI_AWLEN[4]
+ S1_AXI_AWID[3] M1_AXI_ARADDR[0] M1_AXI_ARADDR[10] M1_AXI_ARADDR[16]
+ M1_AXI_ARADDR[3] S1_AXI_AWID[5] M1_AXI_ARADDR[23] S1_AXI_AWLEN[3]
+ M1_AXI_ARBURST[0] S1_AXI_AWLEN[1] S1_AXI_AWLEN[5] M1_AXI_ARADDR[19]
+ M1_AXI_ARADDR[29] S1_AXI_AWID[1] M1_AXI_ARADDR[22] M1_AXI_ARADDR[24]
+ M1_AXI_ARADDR[20] M1_AXI_ARSIZE[0] M1_AXI_ARADDR[2] S1_AXI_AWREADY
+ S1_AXI_AWLEN[6] M1_AXI_ARADDR[27] S1_AXI_AWVALID S1_AXI_AWLEN[2]
+ S1_AXI_AWLEN[7] M1_AXI_ARADDR[28] M1_AXI_ARADDR[6] M1_AXI_ARADDR[17]
+ M1_AXI_ARADDR[25] M1_AXI_ARADDR[26] M1_AXI_ARADDR[31] M1_AXI_ARREADY
+ M1_AXI_ARADDR[8] M1_AXI_ARADDR[9] M1_AXI_ARVALID M1_AXI_ARADDR[7]
+ M1_AXI_ARSIZE[2] M1_AXI_ARADDR[18] M1_AXI_ARADDR[30] M1_AXI_ARADDR[13]
+ M1_AXI_ARADDR[15] M1_AXI_ARADDR[4] M1_AXI_ARADDR[21] M1_AXI_ARADDR[5]
+ M0_AXI_ARSIZE[0] M1_AXI_ARADDR[12] M0_AXI_ARADDR[21] M0_AXI_ARADDR[18]
+ M1_AXI_ARBURST[1] M0_AXI_ARADDR[24] M1_AXI_ARADDR[1] M1_AXI_ARADDR[11]
+ M0_AXI_ARADDR[29] M0_AXI_ARADDR[19] M0_AXI_ARADDR[27] M0_AXI_ARADDR[26]
+ M0_AXI_ARADDR[3] M0_AXI_ARADDR[28] M0_AXI_ARSIZE[2] M1_AXI_ARADDR[14]
+ M1_AXI_ARLEN[2] S2_AXI_ARADDR[6] S2_AXI_ARSIZE[0] S2_AXI_ARADDR[9]
+ S2_AXI_ARADDR[8] S2_AXI_ARADDR[7] M1_AXI_ARSIZE[1] M0_AXI_ARADDR[20]
+ M0_AXI_ARADDR[5] M0_AXI_ARBURST[0] M0_AXI_ARADDR[16] M0_AXI_ARADDR[17]
+ M0_AXI_ARADDR[12] M0_AXI_ARADDR[23] M0_AXI_ARADDR[6] M0_AXI_ARADDR[30]
+ M0_AXI_ARADDR[7] M0_AXI_ARADDR[2] M2_AXI_ARLEN[0] M2_AXI_ARADDR[5]
+ M0_AXI_ARADDR[25] M0_AXI_ARADDR[31] M2_AXI_ARADDR[13] M2_AXI_ARLEN[4]
+ M2_AXI_ARADDR[2] M2_AXI_ARADDR[18] M0_AXI_ARADDR[22] M2_AXI_ARADDR[19]
+ M2_AXI_ARADDR[26] M2_AXI_ARADDR[27] M2_AXI_ARADDR[3] M0_AXI_ARADDR[8]
+ M2_AXI_ARADDR[30] M0_AXI_ARLEN[3] M2_AXI_ARADDR[29] M2_AXI_ARID[0]
+ M2_AXI_ARLEN[1] M2_AXI_ARADDR[22] M2_AXI_ARADDR[24] M2_AXI_ARADDR[25]
+ M2_AXI_ARADDR[9] M0_AXI_ARADDR[13] M0_AXI_ARADDR[4] M0_AXI_ARADDR[14]
+ M2_AXI_ARADDR[7] M0_AXI_ARSIZE[1] M2_AXI_ARADDR[16] M2_AXI_ARADDR[28]
+ M2_AXI_ARADDR[31] M2_AXI_ARADDR[1] M2_AXI_ARADDR[15] M2_AXI_ARADDR[23]
+ M2_AXI_ARADDR[12] M2_AXI_ARADDR[8] M0_AXI_ARADDR[11] M2_AXI_ARADDR[17]
+ M2_AXI_ARADDR[14] M0_AXI_ARBURST[1] M2_AXI_ARSIZE[0] M0_AXI_ARADDR[10]
+ M0_AXI_ARADDR[1] M0_AXI_ARADDR[0] M0_AXI_ARLEN[7] S2_AXI_ARADDR[19]
+ S2_AXI_ARADDR[23] M2_AXI_ARADDR[6] S2_AXI_ARADDR[22] S2_AXI_ARADDR[5]
+ S2_AXI_ARADDR[26] M2_AXI_ARADDR[20] S2_AXI_ARADDR[3] S2_AXI_ARADDR[2]
+ S2_AXI_ARADDR[31] M0_AXI_ARADDR[9] M2_AXI_ARBURST[0] M2_AXI_ARADDR[0]
+ S2_AXI_ARADDR[25] S0_AXI_ARLEN[4] M2_AXI_ARADDR[4] M2_AXI_ARADDR[21]
+ S0_AXI_ARLEN[1] S0_AXI_RREADY S2_AXI_ARADDR[28] S0_AXI_ARADDR[3]
+ S0_AXI_ARLEN[0] S2_AXI_ARADDR[29] S2_AXI_ARADDR[30] M2_AXI_ARBURST[1]
+ S2_AXI_ARADDR[1] S2_AXI_ARADDR[24] S2_AXI_ARADDR[20] M2_AXI_ARID[2]
+ M2_AXI_ARLEN[3] S2_AXI_ARADDR[27] M2_AXI_ARLEN[6] S2_AXI_ARADDR[14]
+ M2_AXI_ARSIZE[2] S2_AXI_ARADDR[16] S2_AXI_ARADDR[15] M2_AXI_ARID[3]
+ S0_AXI_ARBURST[0] S0_AXI_ARADDR[26] S0_AXI_ARADDR[22] S0_AXI_ARADDR[8]
+ S2_AXI_ARADDR[12] S0_AXI_RVALID M2_AXI_ARSIZE[1] M2_AXI_ARLEN[2]
+ S2_AXI_ARADDR[4] S0_AXI_ARADDR[28] S2_AXI_ARADDR[18] M2_AXI_ARADDR[10]
+ M2_AXI_ARADDR[11] S0_AXI_ARADDR[29] S2_AXI_ARADDR[21] S0_AXI_ARID[0]
+ S0_AXI_ARADDR[19] M2_AXI_ARLEN[5] S0_AXI_ARADDR[25] S0_AXI_ARADDR[24]
+ S0_AXI_ARLEN[6] S0_AXI_ARADDR[2] S2_AXI_ARADDR[0] S2_AXI_ARADDR[17]
+ M2_AXI_ARLEN[7] M2_AXI_ARID[1] S0_AXI_ARADDR[13] S0_AXI_ARLEN[2]
+ S0_AXI_ARADDR[5] S0_AXI_ARADDR[20] S0_AXI_ARADDR[31] S0_AXI_ARADDR[30]
+ S0_AXI_ARADDR[27] S0_AXI_ARSIZE[0] S0_AXI_ARADDR[6] S0_AXI_ARID[2]
+ S2_AXI_ARADDR[10] S0_AXI_ARADDR[16] S2_AXI_ARADDR[13] S0_AXI_ARADDR[12]
+ S0_AXI_ARSIZE[2] S2_AXI_ARADDR[11] S0_AXI_ARADDR[14] S0_AXI_ARADDR[4]
+ S0_AXI_ARADDR[17] S0_AXI_ARADDR[15] S0_AXI_ARVALID S0_AXI_ARREADY
+ S0_AXI_ARADDR[21] S0_AXI_ARADDR[18] S0_AXI_ARADDR[1] S1_AXI_ARID[0]
+ S0_AXI_ARLEN[7] S1_AXI_ARLEN[1] S0_AXI_ARID[4] S1_AXI_ARADDR[24]
+ S1_AXI_ARADDR[19] S0_AXI_ARADDR[23] S1_AXI_ARADDR[20] S0_AXI_ARADDR[9]
+ S1_AXI_ARADDR[2] S1_AXI_ARID[5] S1_AXI_ARADDR[26] S1_AXI_ARADDR[27]
+ S1_AXI_ARLEN[7] S0_AXI_ARID[6] S0_AXI_ARSIZE[1] S1_AXI_ARADDR[9]
+ S0_AXI_ARLEN[5] S0_AXI_ARLEN[3] S0_AXI_ARADDR[10] S1_AXI_ARADDR[18]
+ S0_AXI_ARID[3] S1_AXI_ARADDR[16] S1_AXI_ARADDR[29] S0_AXI_ARADDR[0]
+ S1_AXI_ARLEN[5] S1_AXI_ARBURST[0] S1_AXI_ARID[2] S1_AXI_ARID[4]
+ S1_AXI_ARLEN[6] S0_AXI_ARID[5] S1_AXI_ARADDR[6] S1_AXI_ARADDR[25]
+ S1_AXI_ARADDR[30] S1_AXI_ARLEN[4] S1_AXI_ARADDR[23] S1_AXI_ARADDR[11]
+ S1_AXI_ARADDR[22] S0_AXI_ARADDR[7] S1_AXI_ARADDR[14] S1_AXI_ARBURST[1]
+ S1_AXI_ARADDR[1] S0_AXI_ARBURST[1] S1_AXI_ARADDR[8] S1_AXI_ARADDR[5]
+ S1_AXI_ARADDR[12] S0_AXI_ARADDR[11] S1_AXI_ARSIZE[0] S1_AXI_ARADDR[3]
+ S1_AXI_ARADDR[7] S1_AXI_ARLEN[0] S1_AXI_ARADDR[28] S1_AXI_ARADDR[4]
+ S1_AXI_ARADDR[31] S1_AXI_ARADDR[15] S2_AXI_ARID[7] S1_AXI_ARSIZE[1]
+ S2_AXI_ARBURST[0] S2_AXI_BVALID S2_AXI_ARID[6] S2_AXI_ARSIZE[1] S2_AXI_BREADY
+ S2_AXI_ARID[5] S1_AXI_ARSIZE[2] S2_AXI_ARID[4] S1_AXI_BVALID S1_AXI_ARID[7]
+ S2_AXI_ARSIZE[2] S1_AXI_ARADDR[10] S1_AXI_BREADY S2_AXI_ARBURST[1]
+ S1_AXI_ARADDR[0] S1_AXI_BID[5] S1_AXI_BID[0] S1_AXI_BID[4] S1_AXI_BRESP[0]
+ S1_AXI_BID[1] S1_AXI_BID[2] S1_AXI_BID[3] S1_AXI_BRESP[1] M1_AXI_BVALID
+ M1_AXI_BREADY AXI_CLK AXI_RSTn M1_AXI_BRESP[0] M1_AXI_BRESP[1]
+ S2_AXI_BRESP[1] S2_AXI_BRESP[0] M1_AXI_BID[3] M1_AXI_BID[1] S2_AXI_BID[4]
+ M0_AXI_BREADY S2_AXI_BID[1] M0_AXI_BVALID M1_AXI_BID[0] M1_AXI_BID[2]
+ S2_AXI_BID[3] M0_AXI_BRESP[1] S2_AXI_BID[5] M0_AXI_BRESP[0] S2_AXI_BID[2]
+ S1_AXI_ARADDR[21] M0_AXI_BID[0] S2_AXI_BID[0] M0_AXI_BID[1] M0_AXI_BID[2]
+ M0_AXI_BID[3] S1_AXI_ARADDR[17] S0_AXI_BRESP[1] S1_AXI_ARADDR[13]
+ S0_AXI_BRESP[0] S1_AXI_AWBURST[1] S1_AXI_AWSIZE[1] S1_AXI_AWADDR[0]
+ S0_AXI_BID[3] S0_AXI_BID[2] S1_AXI_AWSIZE[0] S1_AXI_AWSIZE[2]
+ S1_AXI_AWADDR[21] S1_AXI_AWADDR[11] S0_AXI_BID[4] S1_AXI_AWID[7]
+ S1_AXI_AWADDR[2] S1_AXI_AWADDR[27] S1_AXI_AWADDR[23] S0_AXI_BID[1]
+ S0_AXI_BID[0] M1_AXI_AWBURST[0] M2_AXI_ARREADY S1_AXI_ARLEN[2]
+ M0_AXI_AWADDR[0] M1_AXI_AWADDR[0] M0_AXI_ARLEN[4] M1_AXI_ARLEN[0]
+ S2_AXI_ARLEN[2] S1_AXI_AWADDR[28] M0_AXI_AWLEN[1] M1_AXI_AWADDR[20]
+ S0_AXI_BID[5] S1_AXI_AWADDR[16] S1_AXI_AWADDR[6] S1_AXI_AWADDR[17]
+ S1_AXI_ARLEN[3] S1_AXI_AWID[4] M1_AXI_AWADDR[23] S1_AXI_ARID[3]
+ M1_AXI_AWADDR[28] S1_AXI_AWADDR[1] M1_AXI_AWADDR[25] S2_AXI_ARLEN[3]
+ S1_AXI_AWADDR[18] M1_AXI_ARLEN[1] S1_AXI_AWBURST[0] S1_AXI_AWADDR[5]
+ M1_AXI_ARLEN[4] M1_AXI_ARLEN[5] M2_AXI_BID[3] S0_AXI_BREADY M2_AXI_BID[1]
+ S0_AXI_BVALID M2_AXI_BID[2] S1_AXI_AWADDR[7] M1_AXI_AWADDR[21]
+ M1_AXI_AWADDR[26] M2_AXI_BVALID S1_AXI_AWADDR[15] S1_AXI_ARID[1]
+ M0_AXI_ARLEN[5] M1_AXI_ARLEN[6] M2_AXI_BREADY S1_AXI_AWADDR[30]
+ S1_AXI_AWID[0] S1_AXI_AWADDR[25] M2_AXI_BRESP[0] S1_AXI_AWADDR[3]
+ S1_AXI_AWADDR[4] S1_AXI_AWADDR[20] S1_AXI_ARVALID S1_AXI_ARREADY
+ M1_AXI_ARLEN[7] M2_AXI_ARVALID M2_AXI_BID[0] S2_AXI_ARLEN[6]
+ M1_AXI_AWADDR[13] S1_AXI_AWADDR[8] M1_AXI_AWADDR[18] S2_AXI_ARLEN[4]
+ M2_AXI_BRESP[1] M1_AXI_AWADDR[31] S2_AXI_ARVALID S1_AXI_WDATA[7]
+ M1_AXI_AWADDR[14] M0_AXI_ARID[3] M1_AXI_AWADDR[12] S2_AXI_ARID[2]
+ S2_AXI_ARREADY S2_AXI_ARID[3] M1_AXI_ARID[3] M1_AXI_AWADDR[19] S2_AXI_ARID[1]
+ S1_AXI_WREADY S2_AXI_ARLEN[7] M1_AXI_AWADDR[11] S1_AXI_AWADDR[9]
+ S2_AXI_ARLEN[5] S1_AXI_WID[0] M1_AXI_AWADDR[6] M0_AXI_AWVALID
+ S1_AXI_AWADDR[10] S1_AXI_WVALID S0_AXI_RID[0] M0_AXI_AWID[1] M0_AXI_AWREADY
+ M1_AXI_WDATA[2] M1_AXI_WSTRB[3] M1_AXI_ARID[0] M1_AXI_AWADDR[10]
+ M1_AXI_ARID[2] M0_AXI_AWADDR[13] S0_AXI_WVALID S0_AXI_ARID[1]
+ M0_AXI_WDATA[16] M1_AXI_AWADDR[17] M0_AXI_AWSIZE[1] M1_AXI_WVALID
+ M1_AXI_WREADY M0_AXI_ARLEN[0] M1_AXI_ARID[1] S0_AXI_WREADY S0_AXI_RID[5]
+ M1_AXI_WDATA[25] M1_AXI_WDATA[4] M0_AXI_AWADDR[25] M0_AXI_AWID[0]
+ M0_AXI_AWADDR[18] S0_AXI_WDATA[6] M1_AXI_AWADDR[29] M1_AXI_AWSIZE[1]
+ S0_AXI_RLAST M1_AXI_WDATA[22] S0_AXI_WLAST S0_AXI_WDATA[10] M0_AXI_ARLEN[2]
+ M0_AXI_AWADDR[30] M0_AXI_AWADDR[17] M1_AXI_WDATA[6] S0_AXI_WDATA[22]
+ S0_AXI_WID[0] M0_AXI_ARLEN[1] M1_AXI_AWREADY M1_AXI_AWSIZE[2] M1_AXI_WID[0]
+ M0_AXI_AWADDR[12] M1_AXI_AWVALID S0_AXI_WDATA[13] M1_AXI_WLAST
+ M0_AXI_AWADDR[15] M0_AXI_AWBURST[0] S0_AXI_WDATA[29] M1_AXI_WID[1]
+ M1_AXI_WDATA[16] M0_AXI_AWBURST[1] M0_AXI_ARID[1] M1_AXI_WDATA[13]
+ S0_AXI_WDATA[27] S0_AXI_WDATA[3] M0_AXI_ARID[0] M1_AXI_AWBURST[1]
+ M1_AXI_AWADDR[24] M0_AXI_ARLEN[6] M0_AXI_AWADDR[29] M1_AXI_WDATA[27]
+ M1_AXI_WDATA[11] M1_AXI_WDATA[10] M0_AXI_AWADDR[20] M1_AXI_WSTRB[2]
+ M1_AXI_WDATA[24] M1_AXI_WDATA[29] M0_AXI_AWID[2] M0_AXI_ARID[2]
+ M1_AXI_WDATA[5] M1_AXI_WDATA[30] M0_AXI_AWADDR[31] M1_AXI_AWADDR[22]
+ M0_AXI_AWADDR[6] M1_AXI_WDATA[18] M1_AXI_WSTRB[0] M1_AXI_AWADDR[5]
+ M1_AXI_AWADDR[27] M1_AXI_WDATA[12] S0_AXI_WSTRB[3] M1_AXI_AWADDR[2]
+ M0_AXI_AWADDR[24] M0_AXI_WDATA[7] M1_AXI_WDATA[21] M1_AXI_WDATA[3]
+ M1_AXI_WSTRB[1] M0_AXI_AWADDR[14] M1_AXI_AWADDR[15] M1_AXI_AWID[1]
+ M1_AXI_WDATA[7] M0_AXI_AWADDR[23] M0_AXI_AWSIZE[2] M1_AXI_WDATA[19]
+ S0_AXI_RID[6] M1_AXI_WDATA[1] M0_AXI_AWID[3] M0_AXI_AWADDR[2]
+ M0_AXI_AWADDR[11] M1_AXI_WID[2] S0_AXI_RID[4] S0_AXI_RID[7] M1_AXI_AWADDR[16]
+ M1_AXI_AWADDR[30] M1_AXI_AWADDR[7] M1_AXI_WDATA[14] M1_AXI_WDATA[28]
+ M0_AXI_AWADDR[19] M0_AXI_AWADDR[10] M0_AXI_AWADDR[22] M1_AXI_WID[3]
+ S0_AXI_WDATA[9] S0_AXI_WDATA[7] M0_AXI_AWADDR[27] M0_AXI_AWADDR[16]
+ S0_AXI_WID[1] M0_AXI_ARVALID M0_AXI_ARREADY M1_AXI_WDATA[8] M1_AXI_WDATA[0]
+ S0_AXI_WDATA[30] S0_AXI_AWADDR[0] M2_AXI_AWREADY M1_AXI_WDATA[17]
+ M1_AXI_WDATA[31] S0_AXI_AWADDR[2] M0_AXI_AWADDR[1] M0_AXI_AWADDR[3]
+ M1_AXI_WDATA[9] M1_AXI_WDATA[26] M1_AXI_WDATA[23] S1_AXI_WDATA[13]
+ M0_AXI_AWADDR[21] M0_AXI_AWADDR[5] M2_AXI_AWADDR[12] M1_AXI_WDATA[20]
+ M1_AXI_WDATA[15] S0_AXI_WID[5] M0_AXI_AWADDR[28] M2_AXI_AWVALID
+ M2_AXI_WDATA[3] S1_AXI_WDATA[29] M0_AXI_AWADDR[7] M0_AXI_AWADDR[26]
+ M2_AXI_AWADDR[17] M2_AXI_WVALID M2_AXI_WREADY M2_AXI_AWADDR[14]
+ S0_AXI_AWADDR[20] S0_AXI_AWADDR[31] S0_AXI_WDATA[11] M2_AXI_WDATA[13]
+ M2_AXI_WDATA[30] M2_AXI_AWADDR[29] S0_AXI_AWADDR[30] S0_AXI_AWBURST[0]
+ M2_AXI_WID[0] M2_AXI_WDATA[6] S0_AXI_WID[4] S1_AXI_WDATA[10] S0_AXI_AWADDR[6]
+ M0_AXI_AWADDR[9] M2_AXI_WLAST S0_AXI_AWADDR[14] M1_AXI_AWADDR[3]
+ M1_AXI_AWLEN[2] M2_AXI_WDATA[7] S0_AXI_WDATA[2] S1_AXI_WDATA[22]
+ M0_AXI_AWLEN[2] M0_AXI_AWADDR[8] S0_AXI_AWADDR[22] M0_AXI_WREADY
+ M2_AXI_WDATA[10] M0_AXI_WVALID S0_AXI_AWVALID S0_AXI_AWREADY
+ M2_AXI_AWBURST[0] M2_AXI_WDATA[29] M2_AXI_WDATA[22] S0_AXI_WDATA[16]
+ S0_AXI_AWADDR[13] M2_AXI_AWADDR[15] S0_AXI_AWID[1] M2_AXI_WDATA[9]
+ M0_AXI_WDATA[22] M0_AXI_WDATA[10] M2_AXI_AWADDR[6] S0_AXI_AWADDR[23]
+ M0_AXI_WLAST S0_AXI_WDATA[21] S0_AXI_AWADDR[18] M0_AXI_AWLEN[5]
+ M0_AXI_AWLEN[6] M0_AXI_WDATA[3] S0_AXI_WSTRB[2] M0_AXI_WDATA[9]
+ M1_AXI_AWID[3] S0_AXI_AWADDR[17] M0_AXI_AWLEN[0] M0_AXI_WDATA[13]
+ M0_AXI_WDATA[29] M0_AXI_WDATA[30] M0_AXI_AWLEN[4] S0_AXI_AWID[3]
+ M2_AXI_AWSIZE[1] M0_AXI_WDATA[6] M0_AXI_WDATA[4] S0_AXI_WDATA[5]
+ M0_AXI_AWSIZE[0] M2_AXI_AWADDR[2] S0_AXI_AWADDR[15] M2_AXI_WDATA[16]
+ M0_AXI_WID[1] M2_AXI_WID[1] M0_AXI_AWLEN[3] M0_AXI_AWLEN[7] M1_AXI_AWLEN[7]
+ S0_AXI_WDATA[17] M2_AXI_WDATA[14] M0_AXI_WDATA[5] M2_AXI_AWADDR[0]
+ S0_AXI_AWADDR[12] S0_AXI_AWLEN[2] M0_AXI_AWADDR[4] M2_AXI_RREADY
+ S1_AXI_WDATA[27] S1_AXI_WDATA[16] M2_AXI_RVALID M1_AXI_AWADDR[8]
+ M2_AXI_AWADDR[19] M2_AXI_WDATA[27] M0_AXI_WDATA[27] S0_AXI_AWADDR[19]
+ M2_AXI_AWADDR[31] S0_AXI_AWADDR[21] M2_AXI_WDATA[5] M2_AXI_WDATA[18]
+ S0_AXI_WDATA[14] M1_AXI_AWADDR[1] M1_AXI_AWLEN[0] M2_AXI_RID[2]
+ S0_AXI_WDATA[4] M1_AXI_AWLEN[6] M1_AXI_AWADDR[9] M2_AXI_WSTRB[3]
+ S0_AXI_RID[1] M1_AXI_AWID[2] M2_AXI_AWADDR[10] M0_AXI_WSTRB[3]
+ M2_AXI_WDATA[26] M2_AXI_AWADDR[30] S0_AXI_AWID[4] S0_AXI_AWSIZE[2]
+ S1_AXI_WDATA[26] M0_AXI_WDATA[14] S0_AXI_WDATA[19] M2_AXI_AWADDR[23]
+ M1_AXI_AWLEN[1] M2_AXI_WDATA[4] M2_AXI_RID[1] M2_AXI_AWADDR[25]
+ M1_AXI_AWADDR[4] M2_AXI_WDATA[25] S0_AXI_RID[2] M1_AXI_AWLEN[4]
+ M1_AXI_AWSIZE[0] M1_AXI_AWID[0] S1_AXI_WDATA[18] M2_AXI_WSTRB[2]
+ S0_AXI_WDATA[26] M1_AXI_AWLEN[3] M1_AXI_AWLEN[5] S0_AXI_WDATA[8]
+ S0_AXI_WDATA[23] M2_AXI_AWADDR[26] M2_AXI_AWADDR[22] S0_AXI_AWBURST[1]
+ S1_AXI_WDATA[24] S0_AXI_WDATA[24] S0_AXI_WDATA[25] M2_AXI_AWADDR[28]
+ S0_AXI_AWID[0] M2_AXI_AWADDR[3] M2_AXI_WDATA[11] S1_AXI_WDATA[11]
+ S0_AXI_WDATA[18] M2_AXI_AWLEN[2] S0_AXI_AWADDR[3] S0_AXI_WDATA[20]
+ M2_AXI_WDATA[24] S0_AXI_AWLEN[4] S0_AXI_AWADDR[10] S2_AXI_RID[4]
+ M0_AXI_WDATA[25] M2_AXI_WDATA[8] S2_AXI_RID[2] S2_AXI_RID[5]
+ M2_AXI_AWADDR[20] M1_AXI_RID[0] M2_AXI_WDATA[2] M2_AXI_WDATA[20]
+ S1_AXI_WDATA[14] S0_AXI_AWADDR[11] S0_AXI_AWLEN[6] M0_AXI_WDATA[20]
+ M0_AXI_WDATA[26] S0_AXI_AWADDR[28] M2_AXI_AWADDR[13] S1_AXI_WDATA[17]
+ M2_AXI_RLAST S2_AXI_RID[6] M2_AXI_AWADDR[18] M2_AXI_AWSIZE[2] S0_AXI_WDATA[0]
+ S0_AXI_WDATA[1] S0_AXI_WDATA[31] S2_AXI_RID[1] M2_AXI_AWID[1]
+ M2_AXI_WDATA[23] M2_AXI_WDATA[17] S0_AXI_AWADDR[24] M2_AXI_AWBURST[1]
+ S0_AXI_AWADDR[16] M2_AXI_WDATA[28] M2_AXI_RID[3] S0_AXI_WDATA[28]
+ M2_AXI_AWLEN[4] S0_AXI_AWSIZE[1] S0_AXI_WID[6] M0_AXI_WDATA[21]
+ S0_AXI_AWSIZE[0] S0_AXI_AWADDR[25] S2_AXI_RDATA[6] S1_AXI_WDATA[20]
+ S0_AXI_WSTRB[1] M2_AXI_WDATA[1] M2_AXI_AWLEN[1] M2_AXI_AWID[2]
+ S1_AXI_WDATA[15] S1_AXI_WDATA[23] S0_AXI_AWADDR[1] S0_AXI_AWADDR[8]
+ S0_AXI_WDATA[15] M2_AXI_WDATA[19] M2_AXI_AWLEN[3] M2_AXI_AWLEN[0]
+ S0_AXI_AWADDR[7] M0_AXI_WDATA[15] M2_AXI_WDATA[12] M0_AXI_WDATA[8]
+ S2_AXI_RID[3] M2_AXI_AWID[0] M2_AXI_AWADDR[9] M2_AXI_WID[3] M2_AXI_RID[0]
+ S0_AXI_AWADDR[27] M2_AXI_AWLEN[6] M0_AXI_WDATA[24] M2_AXI_WDATA[31]
+ S0_AXI_WID[7] S0_AXI_AWADDR[9] S0_AXI_AWADDR[5] S1_AXI_WDATA[0]
+ M2_AXI_WDATA[0] S2_AXI_RREADY S0_AXI_AWADDR[4] S2_AXI_RVALID S0_AXI_WID[3]
+ S1_AXI_WDATA[25] M0_AXI_WSTRB[2] M2_AXI_AWLEN[7] S2_AXI_AWADDR[24]
+ S2_AXI_AWADDR[31] S1_AXI_WDATA[19] S0_AXI_WDATA[12] M2_AXI_WDATA[21]
+ S2_AXI_AWLEN[6] S2_AXI_AWBURST[0] S1_AXI_WDATA[2] M1_AXI_RVALID
+ S2_AXI_RRESP[1] S2_AXI_AWADDR[19] S2_AXI_AWID[3] S2_AXI_AWADDR[8]
+ S0_AXI_WID[2] S0_AXI_WSTRB[0] M2_AXI_WID[2] M2_AXI_WDATA[15] S2_AXI_AWADDR[5]
+ S1_AXI_WDATA[1] S2_AXI_AWADDR[20] S2_AXI_AWADDR[3] M0_AXI_WDATA[2]
+ M1_AXI_RREADY S2_AXI_AWID[2] S2_AXI_RDATA[5] S2_AXI_AWADDR[22]
+ M2_AXI_WSTRB[0] M0_AXI_WDATA[17] M1_AXI_RID[3] S2_AXI_AWID[0] S2_AXI_AWID[5]
+ S2_AXI_AWADDR[30] S2_AXI_WDATA[16] S2_AXI_WDATA[20] S2_AXI_WDATA[31]
+ S2_AXI_AWLEN[2] S2_AXI_AWADDR[15] S1_AXI_WDATA[3] S1_AXI_WDATA[4]
+ S2_AXI_AWBURST[1] S2_AXI_AWLEN[1] S1_AXI_WID[2] S1_AXI_WDATA[31]
+ S2_AXI_AWLEN[0] S2_AXI_AWSIZE[1] S2_AXI_RDATA[8] S2_AXI_AWADDR[14]
+ S1_AXI_WID[5] M0_AXI_WDATA[23] S1_AXI_WSTRB[2] S1_AXI_WID[6] S2_AXI_AWID[1]
+ S2_AXI_AWADDR[9] S2_AXI_AWADDR[26] S1_AXI_WID[4] S2_AXI_WDATA[29]
+ S2_AXI_WDATA[5] S2_AXI_AWADDR[6] S2_AXI_WDATA[3] S2_AXI_AWLEN[5]
+ S2_AXI_AWLEN[7] S2_AXI_AWSIZE[2] S2_AXI_WSTRB[2] S1_AXI_WDATA[30]
+ M0_AXI_WDATA[1] S2_AXI_AWADDR[25] S2_AXI_AWLEN[4] S1_AXI_WDATA[5]
+ S2_AXI_WID[7] S2_AXI_AWADDR[21] S2_AXI_AWADDR[18] S2_AXI_WDATA[30]
+ S2_AXI_WDATA[4] S2_AXI_AWADDR[7] S2_AXI_AWSIZE[0] S2_AXI_AWADDR[23]
+ S2_AXI_WID[2] S2_AXI_WDATA[13] M0_AXI_WID[2] S2_AXI_AWADDR[27]
+ S2_AXI_AWADDR[12] S2_AXI_AWADDR[28] S2_AXI_WID[3] S2_AXI_WDATA[0]
+ S2_AXI_WDATA[10] S2_AXI_AWADDR[4] S2_AXI_AWLEN[3] S2_AXI_WDATA[1]
+ S2_AXI_WDATA[24] S2_AXI_AWID[7] S2_AXI_AWADDR[29] S2_AXI_AWADDR[1]
+ S2_AXI_WID[4] S2_AXI_WDATA[23] S2_AXI_WDATA[17] S2_AXI_AWVALID S2_AXI_AWREADY
+ M0_AXI_WDATA[19] S2_AXI_WID[5] S2_AXI_AWID[6] S2_AXI_AWADDR[16] M0_AXI_WID[3]
+ S1_AXI_WID[3] S2_AXI_AWADDR[2] S2_AXI_AWADDR[10] S2_AXI_AWADDR[17]
+ S2_AXI_AWADDR[11] M0_AXI_WDATA[0] S2_AXI_WID[6] S1_AXI_WID[7]
+ S2_AXI_WDATA[19] S2_AXI_AWADDR[0] S2_AXI_AWID[4] S2_AXI_AWADDR[13]
+ M2_AXI_AWADDR[8] S0_AXI_AWADDR[26] M2_AXI_AWADDR[4] M2_AXI_AWADDR[27]
+ M2_AXI_AWSIZE[0] M2_AXI_AWADDR[7] M2_AXI_AWADDR[21] M2_AXI_AWADDR[24]
+ S2_AXI_RLAST M2_AXI_AWID[3] M2_AXI_AWLEN[5] S2_AXI_RID[7] M2_AXI_AWADDR[1]
+ S2_AXI_RRESP[0] M2_AXI_AWADDR[16] M2_AXI_AWADDR[5] S0_AXI_AWADDR[29]
+ M2_AXI_AWADDR[11] S2_AXI_RID[0] M0_AXI_RDATA[25] S0_AXI_RDATA[25]
+ M0_AXI_RDATA[9] M0_AXI_RDATA[21] S0_AXI_RDATA[16] M0_AXI_RID[1]
+ M2_AXI_RDATA[8] M1_AXI_RDATA[7] S1_AXI_RDATA[4] S0_AXI_RDATA[4] M0_AXI_RLAST
+ M0_AXI_RDATA[19] M2_AXI_RDATA[26] M2_AXI_RDATA[17] S1_AXI_WDATA[21]
+ S2_AXI_WDATA[6] prdata[24] S2_AXI_WDATA[26] S2_AXI_WDATA[2] S2_AXI_WLAST
+ S1_AXI_WID[1] S0_AXI_RDATA[28] S1_AXI_WLAST M0_AXI_WSTRB[1] M2_AXI_RRESP[0]
+ M0_AXI_RDATA[17] M2_AXI_RDATA[30] S2_AXI_RDATA[18] M2_AXI_RDATA[14]
+ M2_AXI_RDATA[28] M2_AXI_RDATA[10] M2_AXI_RDATA[31] M2_AXI_RDATA[0]
+ M1_AXI_RDATA[29] S2_AXI_RDATA[14] M2_AXI_RDATA[2] M2_AXI_RRESP[1]
+ S1_AXI_RDATA[31] M2_AXI_RDATA[9] S1_AXI_RDATA[17] M0_AXI_RDATA[8]
+ S0_AXI_RDATA[26] S1_AXI_RDATA[7] M1_AXI_RDATA[21] M0_AXI_RDATA[28]
+ M1_AXI_RDATA[18] M1_AXI_RDATA[9] S1_AXI_RDATA[21] S0_AXI_RDATA[14]
+ M1_AXI_RLAST S0_AXI_RDATA[13] S0_AXI_RDATA[17] S1_AXI_RDATA[8]
+ S0_AXI_RDATA[21] S1_AXI_RDATA[12] S2_AXI_RDATA[1] S2_AXI_RDATA[10]
+ S2_AXI_RDATA[31] S1_AXI_RDATA[19] M0_AXI_RDATA[4] S1_AXI_RDATA[30]
+ M0_AXI_RDATA[1] M2_AXI_RDATA[29] M1_AXI_RDATA[13] M2_AXI_RDATA[24]
+ S0_AXI_AWID[7] prdata[20] S2_AXI_WDATA[27] S2_AXI_WDATA[8] S2_AXI_WREADY
+ M2_AXI_WSTRB[1] M0_AXI_RDATA[29] M0_AXI_RDATA[14] M0_AXI_RDATA[23]
+ M1_AXI_RID[1] M2_AXI_RDATA[18] M0_AXI_RDATA[10] S2_AXI_RDATA[16]
+ S2_AXI_RDATA[15] S1_AXI_RRESP[0] M1_AXI_RDATA[15] S1_AXI_WDATA[28] prdata[21]
+ S2_AXI_RDATA[9] S2_AXI_RDATA[7] S0_AXI_AWID[6] S2_AXI_RDATA[28]
+ S2_AXI_WSTRB[3] S2_AXI_WDATA[12] S2_AXI_RDATA[26] S0_AXI_AWLEN[0]
+ S2_AXI_RDATA[0] S2_AXI_RDATA[4] M2_AXI_RDATA[12] S1_AXI_RDATA[1]
+ M0_AXI_RDATA[26] M2_AXI_RDATA[3] M1_AXI_RDATA[12] M1_AXI_RDATA[20]
+ M1_AXI_RRESP[0] S0_AXI_RDATA[12] S1_AXI_RRESP[1] S1_AXI_RID[0]
+ M1_AXI_RDATA[3] S1_AXI_RDATA[20] M1_AXI_RDATA[11] prdata[30] prdata[17]
+ prdata[6] M0_AXI_WID[0] prdata[25] M0_AXI_WDATA[31] prdata[8] prdata[23]
+ prdata[16] S2_AXI_WDATA[28] S0_AXI_RDATA[18] M0_AXI_WDATA[11]
+ S1_AXI_RDATA[14] M0_AXI_RID[0] M0_AXI_WSTRB[0] S1_AXI_RDATA[6]
+ S2_AXI_WSTRB[0] S0_AXI_RDATA[29] S0_AXI_RDATA[7] S0_AXI_RDATA[20]
+ S1_AXI_RDATA[26] M0_AXI_RVALID S2_AXI_WDATA[15] M0_AXI_WDATA[28]
+ S2_AXI_RDATA[23] S0_AXI_AWID[5] S1_AXI_RDATA[2] S2_AXI_RDATA[19]
+ S1_AXI_RDATA[16] S2_AXI_RDATA[25] M0_AXI_RDATA[18] S2_AXI_RDATA[24]
+ S1_AXI_RDATA[5] S1_AXI_RVALID M0_AXI_RDATA[20] S1_AXI_RDATA[11] S1_AXI_RID[2]
+ M0_AXI_RREADY S1_AXI_RDATA[3] S1_AXI_RDATA[9] S1_AXI_RDATA[15] S1_AXI_RID[6]
+ S1_AXI_RDATA[23] M0_AXI_WDATA[12] S1_AXI_RDATA[27] S0_AXI_RDATA[3]
+ S0_AXI_RDATA[5] S1_AXI_RDATA[25] S0_AXI_RDATA[23] S0_AXI_RDATA[6]
+ M2_AXI_RDATA[11] S1_AXI_RDATA[0] S1_AXI_RID[1] S0_AXI_RRESP[0]
+ S1_AXI_RDATA[24] S0_AXI_RDATA[1] S0_AXI_RDATA[22] S0_AXI_RDATA[31]
+ M2_AXI_RDATA[5] S0_AXI_RDATA[10] M0_AXI_RDATA[27] M1_AXI_RDATA[24]
+ M1_AXI_RDATA[8] M1_AXI_RDATA[1] M2_AXI_RDATA[4] S2_AXI_RDATA[11]
+ S2_AXI_RDATA[21] net1419 prdata[28] S2_AXI_WDATA[18] prdata[18]
+ S2_AXI_WDATA[22] prdata[19] S2_AXI_WID[0] prdata[29] prdata[12]
+ S2_AXI_WDATA[11] M0_AXI_WDATA[18] prdata[10] prdata[31] S2_AXI_WDATA[14]
+ prdata[26] S2_AXI_WDATA[25] prdata[15] S1_AXI_WDATA[6] S1_AXI_WDATA[9]
+ S2_AXI_WDATA[9] prdata[22] prdata[11] S2_AXI_WDATA[7] S1_AXI_AWID[6]
+ S1_AXI_WSTRB[0] prdata[13] prdata[27] S2_AXI_WDATA[21] S1_AXI_WSTRB[3]
+ S1_AXI_ARID[6] S1_AXI_WSTRB[1] prdata[14] S2_AXI_WSTRB[1] S2_AXI_WVALID
+ prdata[7] prdata[9] S1_AXI_WDATA[12] S0_AXI_AWLEN[7] S2_AXI_WID[1]
+ S1_AXI_WDATA[8] M2_AXI_RDATA[13] M2_AXI_RDATA[22] M2_AXI_RDATA[27]
+ M2_AXI_RDATA[21] S0_AXI_AWID[2] M2_AXI_RDATA[16] M0_AXI_RDATA[12]
+ M2_AXI_RDATA[1] M2_AXI_RDATA[23] M2_AXI_RDATA[20] S0_AXI_RID[3]
+ M2_AXI_RDATA[15] S2_AXI_RDATA[27] M1_AXI_RDATA[30] M2_AXI_RDATA[19]
+ M0_AXI_RDATA[31] M0_AXI_RDATA[2] M2_AXI_RDATA[6] M1_AXI_RDATA[27]
+ S2_AXI_RDATA[13] M1_AXI_RDATA[10] S1_AXI_RDATA[22] S0_AXI_AWLEN[3]
+ M2_AXI_RDATA[7] M2_AXI_RDATA[25] M1_AXI_RDATA[17] M1_AXI_RDATA[23]
+ M0_AXI_RDATA[15] M1_AXI_RRESP[1] S1_AXI_RDATA[29] M1_AXI_RDATA[4]
+ S2_AXI_RDATA[20] S0_AXI_AWLEN[5] M1_AXI_RDATA[0] M1_AXI_RDATA[31]
+ S1_AXI_RID[5] S2_AXI_RDATA[29] M1_AXI_RDATA[25] M1_AXI_RDATA[16]
+ M1_AXI_RDATA[28] M1_AXI_RDATA[22] M1_AXI_RDATA[2] S0_AXI_AWLEN[1]
+ M1_AXI_RDATA[5] S2_AXI_RDATA[30] M0_AXI_RDATA[24] M1_AXI_RDATA[14]
+ S2_AXI_RDATA[3] M1_AXI_RDATA[6] M1_AXI_RID[2] S2_AXI_RDATA[2]
+ M1_AXI_RDATA[19] M0_AXI_RDATA[0] M1_AXI_RDATA[26] M0_AXI_RRESP[1]
+ S1_AXI_RREADY S0_AXI_RDATA[24] S2_AXI_RDATA[22] S0_AXI_RDATA[27]
+ S2_AXI_RDATA[12] S0_AXI_RDATA[19] S0_AXI_RRESP[1] M0_AXI_RDATA[6]
+ M0_AXI_RRESP[0] M0_AXI_RID[3] M0_AXI_RDATA[5] M0_AXI_RDATA[30]
+ M0_AXI_RDATA[13] S0_AXI_RDATA[2] S2_AXI_ARLEN[0] S2_AXI_ARLEN[1]
+ S1_AXI_RDATA[10] M0_AXI_RDATA[3] M0_AXI_RID[2] M0_AXI_RDATA[11]
+ S1_AXI_RDATA[28] M0_AXI_RDATA[16] S1_AXI_RID[7] S0_AXI_RDATA[30]
+ M0_AXI_RDATA[7] S0_AXI_RDATA[8] S2_AXI_ARID[0] S0_AXI_RDATA[11]
+ M0_AXI_RDATA[22] S1_AXI_RDATA[13] S0_AXI_RDATA[15] S1_AXI_RID[4]
+ S1_AXI_RDATA[18] S1_AXI_RLAST S0_AXI_RDATA[9] S1_AXI_RID[3] S2_AXI_RDATA[17]
+ S0_AXI_RDATA[0] NWELL PWELL BULK
X$2 M0_AXI_ARADDR[15] \$9459 NWELL PWELL BULK CLKBUF_X2
X$8 pwrite \$1046 NWELL PWELL BULK BUF_X1
X$14 psel \$387 NWELL PWELL BULK BUF_X1
X$19 \$3570 prdata[5] NWELL PWELL BULK BUF_X1
X$26 \$545 prdata[4] NWELL PWELL BULK BUF_X1
X$32 \$2937 prdata[3] NWELL PWELL BULK BUF_X1
X$38 \$922 prdata[2] NWELL PWELL BULK BUF_X1
X$44 \$2298 prdata[1] NWELL PWELL BULK BUF_X1
X$50 \$2297 prdata[0] NWELL PWELL BULK BUF_X1
X$60 penable \$390 NWELL PWELL BULK BUF_X1
X$62 paddr[9] \$428 NWELL PWELL BULK BUF_X1
X$68 \$598 S1_AXI_AWADDR[22] NWELL PWELL BULK BUF_X1
X$74 paddr[8] \$1290 NWELL PWELL BULK BUF_X1
X$80 paddr[7] \$923 NWELL PWELL BULK BUF_X1
X$86 paddr[6] \$1443 NWELL PWELL BULK BUF_X1
X$92 paddr[5] \$924 NWELL PWELL BULK BUF_X1
X$98 paddr[4] \$1045 NWELL PWELL BULK BUF_X1
X$104 paddr[3] \$927 NWELL PWELL BULK BUF_X1
X$110 paddr[31] \$926 NWELL PWELL BULK BUF_X1
X$116 paddr[30] \$925 NWELL PWELL BULK BUF_X1
X$122 \$1431 S1_AXI_AWADDR[12] NWELL PWELL BULK BUF_X1
X$128 paddr[2] \$2841 NWELL PWELL BULK BUF_X1
X$134 paddr[29] \$1774 NWELL PWELL BULK BUF_X1
X$140 \$2473 S1_AXI_AWADDR[31] NWELL PWELL BULK BUF_X1
X$146 paddr[28] \$628 NWELL PWELL BULK BUF_X1
X$152 paddr[27] \$438 NWELL PWELL BULK BUF_X1
X$158 paddr[26] \$1285 NWELL PWELL BULK BUF_X1
X$164 paddr[25] \$1287 NWELL PWELL BULK BUF_X1
X$170 paddr[24] \$647 NWELL PWELL BULK BUF_X1
X$176 \$2485 S1_AXI_AWADDR[26] NWELL PWELL BULK BUF_X1
X$182 paddr[23] \$653 NWELL PWELL BULK BUF_X1
X$188 paddr[22] \$650 NWELL PWELL BULK BUF_X1
X$194 \$2470 S1_AXI_AWADDR[19] NWELL PWELL BULK BUF_X1
X$200 paddr[21] \$930 NWELL PWELL BULK BUF_X1
X$206 paddr[20] \$929 NWELL PWELL BULK BUF_X1
X$212 paddr[1] \$547 NWELL PWELL BULK BUF_X1
X$218 paddr[19] \$1932 NWELL PWELL BULK BUF_X1
X$224 paddr[18] \$548 NWELL PWELL BULK BUF_X1
X$230 paddr[17] \$1294 NWELL PWELL BULK BUF_X1
X$236 \$2489 S1_AXI_AWADDR[24] NWELL PWELL BULK BUF_X1
X$242 \$4312 S1_AXI_AWADDR[29] NWELL PWELL BULK BUF_X1
X$248 paddr[16] \$932 NWELL PWELL BULK BUF_X1
X$254 paddr[15] \$1972 NWELL PWELL BULK BUF_X1
X$260 paddr[14] \$391 NWELL PWELL BULK BUF_X1
X$270 paddr[13] \$395 NWELL PWELL BULK BUF_X1
X$272 paddr[12] \$1978 NWELL PWELL BULK BUF_X1
X$278 \$2513 S1_AXI_AWADDR[13] NWELL PWELL BULK BUF_X1
X$284 paddr[11] \$1090 NWELL PWELL BULK BUF_X1
X$290 \$2507 S1_AXI_AWADDR[14] NWELL PWELL BULK BUF_X1
X$296 paddr[10] \$393 NWELL PWELL BULK BUF_X1
X$302 \$696 S1_AXI_AWLEN[0] NWELL PWELL BULK BUF_X1
X$308 paddr[0] \$456 NWELL PWELL BULK BUF_X1
X$314 M1_AXI_ARLEN[3] \$18748 NWELL PWELL BULK CLKBUF_X2
X$320 \$1991 S1_AXI_AWID[2] NWELL PWELL BULK BUF_X1
X$326 \$1297 S1_AXI_AWLEN[4] NWELL PWELL BULK BUF_X1
X$332 \$693 S1_AXI_AWID[3] NWELL PWELL BULK BUF_X1
X$338 M1_AXI_ARADDR[0] \$1104 NWELL PWELL BULK BUF_X1
X$344 M1_AXI_ARADDR[10] \$1987 NWELL PWELL BULK BUF_X1
X$350 M1_AXI_ARADDR[16] \$2007 NWELL PWELL BULK BUF_X1
X$356 M1_AXI_ARADDR[3] \$1783 NWELL PWELL BULK BUF_X1
X$362 \$2522 S1_AXI_AWID[5] NWELL PWELL BULK BUF_X1
X$368 M1_AXI_ARADDR[23] \$1126 NWELL PWELL BULK BUF_X1
X$374 \$2005 S1_AXI_AWLEN[3] NWELL PWELL BULK BUF_X1
X$380 M1_AXI_ARBURST[0] \$389 NWELL PWELL BULK BUF_X1
X$386 \$723 S1_AXI_AWLEN[1] NWELL PWELL BULK BUF_X1
X$392 \$734 S1_AXI_AWLEN[5] NWELL PWELL BULK BUF_X1
X$402 M1_AXI_ARADDR[19] \$2030 NWELL PWELL BULK BUF_X1
X$404 M1_AXI_ARADDR[29] \$2025 NWELL PWELL BULK BUF_X1
X$410 \$3183 S1_AXI_AWID[1] NWELL PWELL BULK BUF_X1
X$416 M1_AXI_ARADDR[22] \$1128 NWELL PWELL BULK CLKBUF_X2
X$422 M1_AXI_ARADDR[24] \$1524 NWELL PWELL BULK BUF_X1
X$428 M1_AXI_ARADDR[20] \$2033 NWELL PWELL BULK BUF_X1
X$434 M1_AXI_ARSIZE[0] \$2027 NWELL PWELL BULK BUF_X1
X$440 M1_AXI_ARADDR[2] \$449 NWELL PWELL BULK BUF_X1
X$446 S1_AXI_AWREADY \$933 NWELL PWELL BULK BUF_X1
X$452 \$470 S1_AXI_AWLEN[6] NWELL PWELL BULK BUF_X1
X$458 M1_AXI_ARADDR[27] \$2320 NWELL PWELL BULK BUF_X1
X$464 \$471 S1_AXI_AWVALID NWELL PWELL BULK BUF_X1
X$470 \$2035 S1_AXI_AWLEN[2] NWELL PWELL BULK BUF_X1
X$476 \$3778 S1_AXI_AWLEN[7] NWELL PWELL BULK BUF_X1
X$482 M1_AXI_ARADDR[28] \$2051 NWELL PWELL BULK BUF_X1
X$488 M1_AXI_ARADDR[6] \$2558 NWELL PWELL BULK BUF_X1
X$494 M1_AXI_ARADDR[17] \$1169 NWELL PWELL BULK BUF_X1
X$500 M1_AXI_ARADDR[25] \$3589 NWELL PWELL BULK BUF_X1
X$506 M1_AXI_ARADDR[26] \$2063 NWELL PWELL BULK BUF_X1
X$512 M1_AXI_ARADDR[31] \$1796 NWELL PWELL BULK BUF_X1
X$518 \$2573 M1_AXI_ARREADY NWELL PWELL BULK BUF_X1
X$524 M1_AXI_ARADDR[8] \$4996 NWELL PWELL BULK BUF_X1
X$530 M1_AXI_ARADDR[9] \$942 NWELL PWELL BULK BUF_X1
X$536 M1_AXI_ARVALID \$1183 NWELL PWELL BULK CLKBUF_X2
X$542 M1_AXI_ARADDR[7] \$554 NWELL PWELL BULK BUF_X1
X$548 M1_AXI_ARSIZE[2] \$1141 NWELL PWELL BULK BUF_X1
X$554 M1_AXI_ARADDR[18] \$2074 NWELL PWELL BULK BUF_X1
X$560 M1_AXI_ARADDR[30] \$2328 NWELL PWELL BULK BUF_X1
X$568 M1_AXI_ARADDR[13] \$1178 NWELL PWELL BULK CLKBUF_X2
X$574 M1_AXI_ARADDR[15] \$2082 NWELL PWELL BULK BUF_X1
X$580 M1_AXI_ARADDR[4] \$4334 NWELL PWELL BULK BUF_X1
X$586 M1_AXI_ARADDR[21] \$3194 NWELL PWELL BULK BUF_X1
X$592 M1_AXI_ARADDR[5] \$1789 NWELL PWELL BULK BUF_X1
X$598 M0_AXI_ARSIZE[0] \$947 NWELL PWELL BULK BUF_X1
X$604 M1_AXI_ARADDR[12] \$399 NWELL PWELL BULK BUF_X1
X$610 M0_AXI_ARADDR[21] \$2101 NWELL PWELL BULK BUF_X1
X$616 M0_AXI_ARADDR[18] \$2105 NWELL PWELL BULK BUF_X1
X$622 M1_AXI_ARBURST[1] \$3033 NWELL PWELL BULK BUF_X1
X$628 M0_AXI_ARADDR[24] \$2106 NWELL PWELL BULK BUF_X1
X$634 M1_AXI_ARADDR[1] \$559 NWELL PWELL BULK BUF_X1
X$640 M1_AXI_ARADDR[11] \$1797 NWELL PWELL BULK BUF_X1
X$646 M0_AXI_ARADDR[29] \$2098 NWELL PWELL BULK BUF_X1
X$654 M0_AXI_ARADDR[19] \$2119 NWELL PWELL BULK BUF_X1
X$660 M0_AXI_ARADDR[27] \$2339 NWELL PWELL BULK BUF_X1
X$666 M0_AXI_ARADDR[26] \$2112 NWELL PWELL BULK BUF_X1
X$672 M0_AXI_ARADDR[3] \$2111 NWELL PWELL BULK BUF_X1
X$678 M0_AXI_ARADDR[28] \$3196 NWELL PWELL BULK BUF_X1
X$684 M0_AXI_ARSIZE[2] \$944 NWELL PWELL BULK BUF_X1
X$690 M1_AXI_ARADDR[14] \$954 NWELL PWELL BULK CLKBUF_X2
X$696 M1_AXI_ARLEN[2] \$1237 NWELL PWELL BULK CLKBUF_X2
X$702 \$1321 S2_AXI_ARADDR[6] NWELL PWELL BULK BUF_X1
X$708 \$1604 S2_AXI_ARSIZE[0] NWELL PWELL BULK BUF_X1
X$714 \$828 S2_AXI_ARADDR[9] NWELL PWELL BULK BUF_X1
X$720 \$832 S2_AXI_ARADDR[8] NWELL PWELL BULK BUF_X1
X$726 \$839 S2_AXI_ARADDR[7] NWELL PWELL BULK BUF_X1
X$732 M1_AXI_ARSIZE[1] \$1305 NWELL PWELL BULK BUF_X1
X$738 M0_AXI_ARADDR[20] \$1234 NWELL PWELL BULK CLKBUF_X2
X$744 M0_AXI_ARADDR[5] \$2625 NWELL PWELL BULK BUF_X1
X$752 M0_AXI_ARBURST[0] \$398 NWELL PWELL BULK BUF_X1
X$758 M0_AXI_ARADDR[16] \$2134 NWELL PWELL BULK BUF_X1
X$764 M0_AXI_ARADDR[17] \$1257 NWELL PWELL BULK BUF_X1
X$770 M0_AXI_ARADDR[12] \$1246 NWELL PWELL BULK BUF_X1
X$776 M0_AXI_ARADDR[23] \$1606 NWELL PWELL BULK BUF_X1
X$782 M0_AXI_ARADDR[6] \$4677 NWELL PWELL BULK BUF_X1
X$788 M0_AXI_ARADDR[30] \$2168 NWELL PWELL BULK BUF_X1
X$794 M0_AXI_ARADDR[7] \$563 NWELL PWELL BULK BUF_X1
X$800 M0_AXI_ARADDR[2] \$1314 NWELL PWELL BULK BUF_X1
X$808 M2_AXI_ARLEN[0] \$1259 NWELL PWELL BULK CLKBUF_X2
X$814 M2_AXI_ARADDR[5] \$956 NWELL PWELL BULK BUF_X1
X$820 M0_AXI_ARADDR[25] \$958 NWELL PWELL BULK BUF_X1
X$826 M0_AXI_ARADDR[31] \$401 NWELL PWELL BULK BUF_X1
X$832 M2_AXI_ARADDR[13] \$1643 NWELL PWELL BULK CLKBUF_X2
X$838 M2_AXI_ARLEN[4] \$1270 NWELL PWELL BULK CLKBUF_X2
X$844 M2_AXI_ARADDR[2] \$2350 NWELL PWELL BULK BUF_X1
X$850 M2_AXI_ARADDR[18] \$1268 NWELL PWELL BULK BUF_X1
X$856 M0_AXI_ARADDR[22] \$1276 NWELL PWELL BULK BUF_X1
X$862 M2_AXI_ARADDR[19] \$1275 NWELL PWELL BULK BUF_X1
X$868 M2_AXI_ARADDR[26] \$565 NWELL PWELL BULK BUF_X1
X$874 M2_AXI_ARADDR[27] \$1817 NWELL PWELL BULK BUF_X1
X$880 M2_AXI_ARADDR[3] \$564 NWELL PWELL BULK BUF_X1
X$886 M0_AXI_ARADDR[8] \$1821 NWELL PWELL BULK BUF_X1
X$892 M2_AXI_ARADDR[30] \$2206 NWELL PWELL BULK BUF_X1
X$902 M0_AXI_ARLEN[3] \$895 NWELL PWELL BULK BUF_X2
X$904 M2_AXI_ARADDR[29] \$404 NWELL PWELL BULK BUF_X1
X$910 M2_AXI_ARID[0] \$566 NWELL PWELL BULK BUF_X2
X$916 M2_AXI_ARLEN[1] \$907 NWELL PWELL BULK BUF_X2
X$922 M2_AXI_ARADDR[22] \$1829 NWELL PWELL BULK BUF_X1
X$928 M2_AXI_ARADDR[24] \$1679 NWELL PWELL BULK BUF_X1
X$934 M2_AXI_ARADDR[25] \$2355 NWELL PWELL BULK BUF_X1
X$940 M2_AXI_ARADDR[9] \$1823 NWELL PWELL BULK BUF_X1
X$946 M0_AXI_ARADDR[13] \$1260 NWELL PWELL BULK CLKBUF_X2
X$952 M0_AXI_ARADDR[4] \$1333 NWELL PWELL BULK BUF_X1
X$958 M0_AXI_ARADDR[14] \$913 NWELL PWELL BULK BUF_X2
X$964 M2_AXI_ARADDR[7] \$964 NWELL PWELL BULK BUF_X1
X$974 M0_AXI_ARSIZE[1] \$567 NWELL PWELL BULK BUF_X1
X$976 M2_AXI_ARADDR[16] \$1698 NWELL PWELL BULK BUF_X1
X$982 M2_AXI_ARADDR[28] \$2361 NWELL PWELL BULK BUF_X1
X$988 M2_AXI_ARADDR[31] \$1254 NWELL PWELL BULK BUF_X1